LIT25-MET-PGD2_protomer_1


 27 27  0  0  0  0  0  0  0  0999 V2000
    1.3040   99.8013   54.7036 C   0  0  0  0  0  0  0  0  0  0  0  0
    1.5726  101.1585   54.0534 C   0  0  0  0  0  0  0  0  0  0  0  0
    2.3382  101.3324   53.1109 O   0  0  0  0  0  0  0  0  0  0  0  0
    0.7737  102.2691   54.6823 C   0  0  0  0  0  0  0  0  0  0  0  0
   -0.2365  101.4743   55.4966 C   0  0  0  0  0  0  0  0  0  0  0  0
   -0.8383  102.2498   56.5107 O   0  0  0  0  0  0  0  0  0  0  0  0
    0.5246  100.2218   55.9761 C   0  0  0  0  0  0  0  0  0  0  0  0
   -0.1596  102.5340   57.1487 H   0  0  0  0  0  0  0  0  0  0  0  0
   -0.1810   97.8695   53.8799 C   0  0  0  0  0  0  0  0  0  0  0  0
    0.6133   98.9354   53.6738 C   0  0  0  0  0  0  0  0  0  0  0  0
   -0.8519   97.0289   52.8194 C   0  0  0  0  0  0  0  0  0  0  0  0
   -1.2686   97.8301   51.7217 O   0  0  0  0  0  0  0  0  0  0  0  0
   -1.8360   98.5312   52.0852 H   0  0  0  0  0  0  0  0  0  0  0  0
    0.0917   95.9299   52.3176 C   0  0  0  0  0  0  0  0  0  0  0  0
    1.1684   95.5079   53.3265 C   0  0  0  0  0  0  0  0  0  0  0  0
    2.3668   94.7529   52.7439 C   0  0  0  0  0  0  0  0  0  0  0  0
    2.4554   92.7459   51.2239 C   0  0  0  0  0  0  0  0  0  0  0  0
    2.1371   93.2461   52.6247 C   0  0  0  0  0  0  0  0  0  0  0  0
    1.5191  100.4415   57.1431 C   0  0  0  0  0  0  0  0  0  0  0  0
    2.8811  100.9020   56.7093 C   0  0  0  0  0  0  0  0  0  0  0  0
    3.3989  102.1358   56.8277 C   0  0  0  0  0  0  0  0  0  0  0  0
    2.7685  103.3465   57.4609 C   0  0  0  0  0  0  0  0  0  0  0  0
    3.7793  104.4258   57.8534 C   0  0  0  0  0  0  0  0  0  0  0  0
    3.3455  105.8352   57.4565 C   0  0  0  0  0  0  0  0  0  0  0  0
    3.6997  106.9262   58.4712 C   0  0  0  0  0  0  0  0  0  0  0  0
    2.8037  107.2377   59.3024 O   0  0  0  0  0  0  0  0  0  0  0  0
    4.8715  107.3855   58.3443 O   0  0  0  0  0  0  0  0  0  0  0  0
 17 18  1  0
 18 16  1  0
 16 15  1  0
 15 14  1  0
 14 11  1  0
 11 12  1  0
 11  9  1  0
  9 10  2  0
 10  1  1  0
  1  2  1  0
  2  3  2  0
  2  4  1  0
  4  5  1  0
  5  6  1  0
  5  7  1  0
  7 19  1  0
 19 20  1  0
 20 21  2  0
 21 22  1  0
 22 23  1  0
 23 24  1  0
 24 25  1  0
 25 26  2  0
 25 27  1  0
  7  1  1  0
 12 13  1  0
  6  8  1  0
M  CHG 1  27  -1
M  END
> <CANDIDATE_ID>
LIT25-MET-PGD2

> <PRIMARY_PROTOMER>
true

> <PH>
7.4

> <minimizedAffinity>
-7.05417

> <CNNscore>
0.7563228607

> <CNNaffinity>
6.1262950897

> <CNN_VS>
4.6334571838

> <CNNaffinity_variance>
0.1336059570

$$$$
