LIT25-MET-PGD2_protomer_1


 27 27  0  0  0  0  0  0  0  0999 V2000
    3.1819   99.9513   55.7774 C   0  0  0  0  0  0  0  0  0  0  0  0
    3.0372  100.9838   54.6594 C   0  0  0  0  0  0  0  0  0  0  0  0
    3.9602  101.3600   53.9442 O   0  0  0  0  0  0  0  0  0  0  0  0
    1.6236  101.4803   54.5102 C   0  0  0  0  0  0  0  0  0  0  0  0
    0.8673  100.4559   55.3433 C   0  0  0  0  0  0  0  0  0  0  0  0
   -0.4130  100.9123   55.7234 O   0  0  0  0  0  0  0  0  0  0  0  0
    1.8184  100.0930   56.5015 C   0  0  0  0  0  0  0  0  0  0  0  0
   -0.3224  101.6943   56.2968 H   0  0  0  0  0  0  0  0  0  0  0  0
    4.6091   97.8535   55.3558 C   0  0  0  0  0  0  0  0  0  0  0  0
    3.5344   98.6307   55.1303 C   0  0  0  0  0  0  0  0  0  0  0  0
    4.9248   96.5379   54.6844 C   0  0  0  0  0  0  0  0  0  0  0  0
    5.0072   95.4861   55.6369 O   0  0  0  0  0  0  0  0  0  0  0  0
    5.6656   95.7579   56.2990 H   0  0  0  0  0  0  0  0  0  0  0  0
    3.8612   96.1922   53.6359 C   0  0  0  0  0  0  0  0  0  0  0  0
    3.3754   94.7370   53.6801 C   0  0  0  0  0  0  0  0  0  0  0  0
    2.4476   94.3104   52.5386 C   0  0  0  0  0  0  0  0  0  0  0  0
    1.8631   92.5779   50.8056 C   0  0  0  0  0  0  0  0  0  0  0  0
    2.8299   92.9687   51.9131 C   0  0  0  0  0  0  0  0  0  0  0  0
    1.9392  101.1458   57.6312 C   0  0  0  0  0  0  0  0  0  0  0  0
    3.2170  101.9343   57.6000 C   0  0  0  0  0  0  0  0  0  0  0  0
    3.3493  103.2644   57.4668 C   0  0  0  0  0  0  0  0  0  0  0  0
    2.2593  104.2964   57.3622 C   0  0  0  0  0  0  0  0  0  0  0  0
    2.7106  105.7030   57.7602 C   0  0  0  0  0  0  0  0  0  0  0  0
    3.4994  106.4186   56.6657 C   0  0  0  0  0  0  0  0  0  0  0  0
    2.7081  107.4756   55.8899 C   0  0  0  0  0  0  0  0  0  0  0  0
    2.5139  108.5771   56.4725 O   0  0  0  0  0  0  0  0  0  0  0  0
    2.3427  107.1014   54.7381 O   0  0  0  0  0  0  0  0  0  0  0  0
 17 18  1  0
 18 16  1  0
 16 15  1  0
 15 14  1  0
 14 11  1  0
 11 12  1  0
 11  9  1  0
  9 10  2  0
 10  1  1  0
  1  2  1  0
  2  3  2  0
  2  4  1  0
  4  5  1  0
  5  6  1  0
  5  7  1  0
  7 19  1  0
 19 20  1  0
 20 21  2  0
 21 22  1  0
 22 23  1  0
 23 24  1  0
 24 25  1  0
 25 26  2  0
 25 27  1  0
  7  1  1  0
 12 13  1  0
  6  8  1  0
M  CHG 1  27  -1
M  END
> <CANDIDATE_ID>
LIT25-MET-PGD2

> <PRIMARY_PROTOMER>
true

> <PH>
7.4

> <minimizedAffinity>
-7.08719

> <CNNscore>
0.7385625243

> <CNNaffinity>
5.6247935295

> <CNN_VS>
4.1542615891

> <CNNaffinity_variance>
0.5865531564

$$$$
