@<TRIPOS>MOLECULE
C9A
   32    35     1     0     0
SMALL
bcc


@<TRIPOS>ATOM
      1 N            2.0270    -3.2520     1.8780 nv         1 C9A      -0.943500
      2 C            1.4900    -2.1520     1.2250 ca         1 C9A       0.731200
      3 N1           2.3530    -1.2570     0.7230 nb         1 C9A      -0.763000
      4 C1           1.8590    -0.1730     0.0960 ca         1 C9A       0.676000
      5 C2           2.8190     0.7900    -0.4310 cc         1 C9A       0.180700
      6 C3           2.6920     1.9930    -1.1030 cd         1 C9A      -0.198300
      7 C4           4.0040     2.4660    -1.3530 cd         1 C9A      -0.280300
      8 C5           4.8540     1.5270    -0.8180 cc         1 C9A       0.253600
      9 O            4.1500     0.5110    -0.2580 os         1 C9A      -0.325800
     10 N2           0.5640     0.1400    -0.0970 nb         1 C9A      -0.735000
     11 C6          -0.2840    -0.7780     0.4110 ca         1 C9A       0.496800
     12 C7           0.1130    -1.9290     1.0860 ca         1 C9A      -0.377400
     13 C8          -1.0590    -2.6150     1.4750 cc         1 C9A      -0.141200
     14 C9          -2.1340    -1.8730     1.0440 cd         1 C9A      -0.113100
     15 N3          -1.6830    -0.7410     0.3780 na         1 C9A      -0.109200
     16 C10         -2.5300     0.2540    -0.2190 ca         1 C9A       0.059800
     17 C11         -2.0120     1.2610    -1.0380 ca         1 C9A      -0.257300
     18 C12         -2.8830     2.1910    -1.5870 ca         1 C9A       0.406700
     19 N4          -4.2150     2.1920    -1.3810 nb         1 C9A      -0.668000
     20 C13         -4.6990     1.2150    -0.5910 ca         1 C9A       0.406700
     21 C14         -3.9130     0.2380     0.0040 ca         1 C9A      -0.257300
     22 H            3.0060    -3.0920     2.0910 hn         1 C9A       0.428300
     23 H1           1.4620    -3.6260     2.6270 hn         1 C9A       0.428300
     24 H2           1.7580     2.4640    -1.3760 ha         1 C9A       0.174000
     25 H3           4.2940     3.3760    -1.8580 ha         1 C9A       0.163000
     26 H4           5.9290     1.4380    -0.7560 h4         1 C9A       0.055100
     27 H5          -1.1140    -3.5560     2.0080 ha         1 C9A       0.158000
     28 H6          -3.1860    -2.0940     1.1440 h4         1 C9A       0.176000
     29 H7          -0.9640     1.3480    -1.2890 ha         1 C9A       0.160500
     30 H8          -2.5150     2.9840    -2.2330 h4         1 C9A       0.026600
     31 H9          -5.7740     1.2380    -0.4360 h4         1 C9A       0.026600
     32 H10         -4.4100    -0.4890     0.6340 ha         1 C9A       0.160500
@<TRIPOS>BOND
     1     1     2 1   
     2     2     3 ar  
     3     3     4 ar  
     4     4     5 1   
     5     5     6 2   
     6     6     7 1   
     7     7     8 2   
     8     8     9 1   
     9     4    10 ar  
    10    10    11 ar  
    11    11    12 ar  
    12    12    13 1   
    13    13    14 2   
    14    14    15 1   
    15    15    16 1   
    16    16    17 ar  
    17    17    18 ar  
    18    18    19 ar  
    19    19    20 ar  
    20    20    21 ar  
    21    12     2 ar  
    22    21    16 ar  
    23     9     5 1   
    24    15    11 1   
    25     1    22 1   
    26     1    23 1   
    27     6    24 1   
    28     7    25 1   
    29     8    26 1   
    30    13    27 1   
    31    14    28 1   
    32    17    29 1   
    33    18    30 1   
    34    20    31 1   
    35    21    32 1   
@<TRIPOS>SUBSTRUCTURE
     1 C9A         1 TEMP              0 ****  ****    0 ROOT
