LIT25-RL-C5_protomer_1


 21 23  0  0  0  0  0  0  0  0999 V2000
   -1.7985   98.1036   52.2362 N   0  0  0  0  0  0  0  0  0  0  0  0
   -0.7695   97.2020   52.4274 C   0  0  0  0  0  0  0  0  0  0  0  0
   -0.9574   95.9664   51.9807 N   0  0  0  0  0  0  0  0  0  0  0  0
    0.0648   95.0935   52.1308 C   0  0  0  0  0  0  0  0  0  0  0  0
    1.2738   95.4460   52.7489 C   0  0  0  0  0  0  0  0  0  0  0  0
    2.3707   94.5767   52.9848 C   0  0  0  0  0  0  0  0  0  0  0  0
    3.5161   95.0538   53.6040 C   0  0  0  0  0  0  0  0  0  0  0  0
    4.5499   94.2321   53.8230 F   0  0  0  0  0  0  0  0  0  0  0  0
    3.6005   96.3773   54.0007 C   0  0  0  0  0  0  0  0  0  0  0  0
    2.5154   97.2274   53.7754 C   0  0  0  0  0  0  0  0  0  0  0  0
    1.3494   96.7834   53.1596 C   0  0  0  0  0  0  0  0  0  0  0  0
    0.3518   97.6557   52.9881 N   0  0  0  0  0  0  0  0  0  0  0  0
   -1.4140   99.0309   52.1357 H   0  0  0  0  0  0  0  0  0  0  0  0
   -2.3821   97.7577   51.4850 H   0  0  0  0  0  0  0  0  0  0  0  0
   -0.1976   93.7549   51.5853 C   0  0  0  0  0  0  0  0  0  0  0  0
    0.8447   92.9174   51.1749 C   0  0  0  0  0  0  0  0  0  0  0  0
    0.5814   91.6229   50.7014 C   0  0  0  0  0  0  0  0  0  0  0  0
   -0.7148   91.0908   50.5991 C   0  0  0  0  0  0  0  0  0  0  0  0
   -0.9415   89.9087   50.1809 O   0  0  0  0  0  0  0  0  0  0  0  0
   -1.7403   91.9691   50.9910 C   0  0  0  0  0  0  0  0  0  0  0  0
   -1.5011   93.2680   51.4678 C   0  0  0  0  0  0  0  0  0  0  0  0
  1  2  1  0
  2  3  2  0
  3  4  1  0
  4 15  1  0
 15 16  2  0
 16 17  1  0
 17 18  2  0
 18 19  1  0
 18 20  1  0
 20 21  2  0
  4  5  2  0
  5  6  1  0
  6  7  2  0
  7  8  1  0
  7  9  1  0
  9 10  2  0
 10 11  1  0
 11 12  2  0
 12  2  1  0
 21 15  1  0
 11  5  1  0
  1 13  1  0
  1 14  1  0
M  CHG 1  19  -1
M  END
> <CANDIDATE_ID>
LIT25-RL-C5

> <PRIMARY_PROTOMER>
true

> <PH>
7.4

> <minimizedAffinity>
-9.63788

> <CNNscore>
0.9403387904

> <CNNaffinity>
6.9133052826

> <CNN_VS>
6.5008492470

> <CNNaffinity_variance>
0.2222616673

$$$$
