LIT25-RL-C5_protomer_1


 21 23  0  0  0  0  0  0  0  0999 V2000
   -1.7873   98.1374   52.2098 N   0  0  0  0  0  0  0  0  0  0  0  0
   -0.7652   97.2305   52.4126 C   0  0  0  0  0  0  0  0  0  0  0  0
   -0.9556   95.9951   51.9664 N   0  0  0  0  0  0  0  0  0  0  0  0
    0.0602   95.1168   52.1281 C   0  0  0  0  0  0  0  0  0  0  0  0
    1.2652   95.4638   52.7572 C   0  0  0  0  0  0  0  0  0  0  0  0
    2.3548   94.5889   53.0053 C   0  0  0  0  0  0  0  0  0  0  0  0
    3.4968   95.0608   53.6346 C   0  0  0  0  0  0  0  0  0  0  0  0
    4.5239   94.2338   53.8651 F   0  0  0  0  0  0  0  0  0  0  0  0
    3.5848   96.3846   54.0296 C   0  0  0  0  0  0  0  0  0  0  0  0
    2.5066   97.2403   53.7922 C   0  0  0  0  0  0  0  0  0  0  0  0
    1.3442   96.8015   53.1660 C   0  0  0  0  0  0  0  0  0  0  0  0
    0.3532   97.6791   52.9832 N   0  0  0  0  0  0  0  0  0  0  0  0
   -1.3966   99.0624   52.1112 H   0  0  0  0  0  0  0  0  0  0  0  0
   -2.3655   97.7932   51.4537 H   0  0  0  0  0  0  0  0  0  0  0  0
   -0.2044   93.7786   51.5826 C   0  0  0  0  0  0  0  0  0  0  0  0
    0.8341   92.9536   51.1388 C   0  0  0  0  0  0  0  0  0  0  0  0
    0.5702   91.6591   50.6656 C   0  0  0  0  0  0  0  0  0  0  0  0
   -0.7232   91.1148   50.5962 C   0  0  0  0  0  0  0  0  0  0  0  0
   -0.9500   89.9329   50.1779 O   0  0  0  0  0  0  0  0  0  0  0  0
   -1.7457   91.9811   51.0213 C   0  0  0  0  0  0  0  0  0  0  0  0
   -1.5059   93.2796   51.4986 C   0  0  0  0  0  0  0  0  0  0  0  0
  1  2  1  0
  2  3  2  0
  3  4  1  0
  4 15  1  0
 15 16  2  0
 16 17  1  0
 17 18  2  0
 18 19  1  0
 18 20  1  0
 20 21  2  0
  4  5  2  0
  5  6  1  0
  6  7  2  0
  7  8  1  0
  7  9  1  0
  9 10  2  0
 10 11  1  0
 11 12  2  0
 12  2  1  0
 21 15  1  0
 11  5  1  0
  1 13  1  0
  1 14  1  0
M  CHG 1  19  -1
M  END
> <CANDIDATE_ID>
LIT25-RL-C5

> <PRIMARY_PROTOMER>
true

> <PH>
7.4

> <minimizedAffinity>
-9.62697

> <CNNscore>
0.9372538924

> <CNNaffinity>
6.9089431763

> <CNN_VS>
6.4754338264

> <CNNaffinity_variance>
0.2286611050

$$$$
