LIT25-RL-C5_protomer_1


 21 23  0  0  0  0  0  0  0  0999 V2000
   -1.7833   98.1632   52.1461 N   0  0  0  0  0  0  0  0  0  0  0  0
   -0.7679   97.2550   52.3747 C   0  0  0  0  0  0  0  0  0  0  0  0
   -0.9557   96.0156   51.9388 N   0  0  0  0  0  0  0  0  0  0  0  0
    0.0542   95.1356   52.1259 C   0  0  0  0  0  0  0  0  0  0  0  0
    1.2504   95.4851   52.7702 C   0  0  0  0  0  0  0  0  0  0  0  0
    2.3328   94.6091   53.0449 C   0  0  0  0  0  0  0  0  0  0  0  0
    3.4664   95.0838   53.6871 C   0  0  0  0  0  0  0  0  0  0  0  0
    4.4867   94.2558   53.9426 F   0  0  0  0  0  0  0  0  0  0  0  0
    3.5530   96.4114   54.0693 C   0  0  0  0  0  0  0  0  0  0  0  0
    2.4818   97.2683   53.8058 C   0  0  0  0  0  0  0  0  0  0  0  0
    1.3278   96.8269   53.1659 C   0  0  0  0  0  0  0  0  0  0  0  0
    0.3430   97.7058   52.9582 N   0  0  0  0  0  0  0  0  0  0  0  0
   -1.3877   99.0858   52.0439 H   0  0  0  0  0  0  0  0  0  0  0  0
   -2.3508   97.8130   51.3847 H   0  0  0  0  0  0  0  0  0  0  0  0
   -0.2066   93.7926   51.5906 C   0  0  0  0  0  0  0  0  0  0  0  0
    0.8371   92.9507   51.1928 C   0  0  0  0  0  0  0  0  0  0  0  0
    0.5750   91.6524   50.7291 C   0  0  0  0  0  0  0  0  0  0  0  0
   -0.7211   91.1204   50.6247 C   0  0  0  0  0  0  0  0  0  0  0  0
   -0.9467   89.9350   50.2156 O   0  0  0  0  0  0  0  0  0  0  0  0
   -1.7477   92.0030   51.0038 C   0  0  0  0  0  0  0  0  0  0  0  0
   -1.5099   93.3057   51.4706 C   0  0  0  0  0  0  0  0  0  0  0  0
  1  2  1  0
  2  3  2  0
  3  4  1  0
  4 15  1  0
 15 16  2  0
 16 17  1  0
 17 18  2  0
 18 19  1  0
 18 20  1  0
 20 21  2  0
  4  5  2  0
  5  6  1  0
  6  7  2  0
  7  8  1  0
  7  9  1  0
  9 10  2  0
 10 11  1  0
 11 12  2  0
 12  2  1  0
 21 15  1  0
 11  5  1  0
  1 13  1  0
  1 14  1  0
M  CHG 1  19  -1
M  END
> <CANDIDATE_ID>
LIT25-RL-C5

> <PRIMARY_PROTOMER>
true

> <PH>
7.4

> <minimizedAffinity>
-9.66065

> <CNNscore>
0.9354711771

> <CNNaffinity>
6.8940453529

> <CNN_VS>
6.4491806030

> <CNNaffinity_variance>
0.2246819735

$$$$
