@<TRIPOS>MOLECULE
NEC
 38 40 0 0 0
SMALL
GASTEIGER

@<TRIPOS>ATOM
      1 C           0.6960    0.4960    3.2950 C.2     1  UNL1        0.2447
      2 O           1.8650    0.7410    3.0830 O.2     1  UNL1       -0.2729
      3 N           0.3020    0.0960    4.5200 N.am    1  UNL1       -0.3134
      4 C           1.2860   -0.0430    5.5960 C.3     1  UNL1        0.0088
      5 C           0.5830   -0.5070    6.8730 C.3     1  UNL1       -0.0495
      6 C          -0.3160    0.6410    2.1880 C.3     1  UNL1        0.1650
      7 O           0.3330    0.9970    0.9490 O.3     1  UNL1       -0.3387
      8 C          -0.9790   -0.7240    1.8730 C.3     1  UNL1        0.1199
      9 O          -2.0990   -0.9620    2.7280 O.3     1  UNL1       -0.3860
     10 C          -1.4350   -0.5300    0.4050 C.3     1  UNL1        0.1290
     11 O          -2.8180   -0.1720    0.3540 O.3     1  UNL1       -0.3846
     12 C          -0.5590    0.6260   -0.1140 C.3     1  UNL1        0.1672
     13 N           0.2100    0.1870   -1.2800 N.ar    1  UNL1       -0.2855
     14 C           1.4450   -0.3880   -1.2610 C.ar    1  UNL1        0.1004
     15 N           1.8320   -0.6520   -2.4760 N.ar    1  UNL1       -0.2306
     16 C           0.8710   -0.2640   -3.3490 C.ar    1  UNL1        0.1473
     17 C           0.7350   -0.2970   -4.7470 C.ar    1  UNL1        0.1472
     18 N           1.7380   -0.8210   -5.5440 N.pl3   1  UNL1       -0.3413
     19 N          -0.3790    0.1840   -5.2860 N.ar    1  UNL1       -0.2188
     20 C          -1.3410    0.6850   -4.5340 C.ar    1  UNL1        0.1205
     21 N          -1.2570    0.7370   -3.2210 N.ar    1  UNL1       -0.2159
     22 C          -0.1820    0.2730   -2.5920 C.ar    1  UNL1        0.1674
     23 H          -0.6320   -0.0990    4.6890 H       1  UNL1        0.1487
     24 H           1.7680    0.9170    5.7760 H       1  UNL1        0.0459
     25 H           2.0380   -0.7780    5.3080 H       1  UNL1        0.0459
     26 H           1.3150   -0.6120    7.6740 H       1  UNL1        0.0245
     27 H          -0.1680    0.2270    7.1620 H       1  UNL1        0.0245
     28 H           0.1010   -1.4690    6.6940 H       1  UNL1        0.0245
     29 H          -1.0700    1.3820    2.4530 H       1  UNL1        0.0721
     30 H          -0.2530   -1.5330    1.9520 H       1  UNL1        0.0652
     31 H          -1.7490   -1.0740    3.6230 H       1  UNL1        0.2100
     32 H          -1.2540   -1.4350   -0.1740 H       1  UNL1        0.0666
     33 H          -3.3150   -0.9310    0.6900 H       1  UNL1        0.2101
     34 H          -1.1880    1.4750   -0.3830 H       1  UNL1        0.0867
     35 H           2.0190   -0.5940   -0.3700 H       1  UNL1        0.1030
     36 H           1.6330   -0.8380   -6.5080 H       1  UNL1        0.1438
     37 H           2.5470   -1.1700   -5.1380 H       1  UNL1        0.1438
     38 H          -2.2300    1.0670   -5.0130 H       1  UNL1        0.1048
@<TRIPOS>BOND
     1     1     2    2
     2     1     3   am
     3     1     6    1
     4     3     4    1
     5     3    23    1
     6     4     5    1
     7     4    24    1
     8     4    25    1
     9     5    26    1
    10     5    27    1
    11     5    28    1
    12     6     7    1
    13     6     8    1
    14     6    29    1
    15     7    12    1
    16     8     9    1
    17     8    10    1
    18     8    30    1
    19     9    31    1
    20    10    11    1
    21    10    12    1
    22    10    32    1
    23    11    33    1
    24    12    13    1
    25    12    34    1
    26    13    14   ar
    27    13    22   ar
    28    14    15   ar
    29    14    35    1
    30    15    16   ar
    31    16    17   ar
    32    16    22   ar
    33    17    18    1
    34    17    19   ar
    35    18    36    1
    36    18    37    1
    37    19    20   ar
    38    20    21   ar
    39    20    38    1
    40    21    22   ar
