@<TRIPOS>MOLECULE
NEC
   38    40     1     0     0
SMALL
bcc


@<TRIPOS>ATOM
1 C 0.6960 0.4960 3.2950 C.2 1 NEC 0.639100
2 O 1.8650 0.7410 3.0830 O.2 1 NEC -0.635100
3 N 0.3020 0.0960 4.5200 N.am 1 NEC -0.545900
4 C1 1.2860 -0.0430 5.5960 C.3 1 NEC 0.086000
5 C2 0.5830 -0.5070 6.8730 C.3 1 NEC -0.116100
6 C3 -0.3160 0.6410 2.1880 C.3 1 NEC 0.026100
7 O1 0.3330 0.9970 0.9490 O.3 1 NEC -0.409600
8 C4 -0.9790 -0.7240 1.8730 C.3 1 NEC 0.093100
9 O2 -2.0990 -0.9620 2.7280 O.3 1 NEC -0.597800
10 C5 -1.4350 -0.5300 0.4050 C.3 1 NEC 0.124100
11 O3 -2.8180 -0.1720 0.3540 O.3 1 NEC -0.583800
12 C6 -0.5590 0.6260 -0.1140 C.3 1 NEC 0.246800
13 N1 0.2100 0.1870 -1.2800 N.ar 1 NEC -0.289000
14 C7 1.4450 -0.3880 -1.2610 C.ar 1 NEC 0.402700
15 N2 1.8320 -0.6520 -2.4760 N.ar 1 NEC -0.534100
16 C8 0.8710 -0.2640 -3.3490 C.ar 1 NEC -0.239200
17 C9 0.7350 -0.2970 -4.7470 C.ar 1 NEC 0.764200
18 N3 1.7380 -0.8210 -5.5440 N.pl3 1 NEC -0.958500
19 N4 -0.3790 0.1840 -5.2860 N.ar 1 NEC -0.794000
20 C10 -1.3410 0.6850 -4.5340 C.ar 1 NEC 0.690900
21 N5 -1.2570 0.7370 -3.2210 N.ar 1 NEC -0.733000
22 C11 -0.1820 0.2730 -2.5920 C.ar 1 NEC 0.475800
23 H -0.6320 -0.0990 4.6890 H 1 NEC 0.330500
24 H1 1.7680 0.9170 5.7760 H 1 NEC 0.061200
25 H2 2.0380 -0.7780 5.3080 H 1 NEC 0.061200
26 H3 1.3150 -0.6120 7.6740 H 1 NEC 0.043700
27 H4 -0.1680 0.2270 7.1620 H 1 NEC 0.043700
28 H5 0.1010 -1.4690 6.6940 H 1 NEC 0.043700
29 H6 -1.0700 1.3820 2.4530 H 1 NEC 0.107700
30 H7 -0.2530 -1.5330 1.9520 H 1 NEC 0.076700
31 H8 -1.7490 -1.0740 3.6230 H 1 NEC 0.436000
32 H9 -1.2540 -1.4350 -0.1740 H 1 NEC 0.072700
33 H10 -3.3150 -0.9310 0.6900 H 1 NEC 0.438000
34 H11 -1.1880 1.4750 -0.3830 H 1 NEC 0.148700
35 H12 2.0190 -0.5940 -0.3700 H 1 NEC 0.071800
36 H13 1.6330 -0.8380 -6.5080 H 1 NEC 0.449300
37 H14 2.5470 -1.1700 -5.1380 H 1 NEC 0.449300
38 H15 -2.2300 1.0670 -5.0130 H 1 NEC 0.054100
@<TRIPOS>BOND
     1     1     2 2   
     2     1     3 1   
     3     1     6 1   
     4     3     4 1   
     5     3    23 1   
     6     4     5 1   
     7     4    24 1   
     8     4    25 1   
     9     5    26 1   
    10     5    27 1   
    11     5    28 1   
    12     6     7 1   
    13     6     8 1   
    14     6    29 1   
    15     7    12 1   
    16     8     9 1   
    17     8    10 1   
    18     8    30 1   
    19     9    31 1   
    20    10    11 1   
    21    10    12 1   
    22    10    32 1   
    23    11    33 1   
    24    12    13 1   
    25    12    34 1   
    26    13    14 1   
    27    13    22 1   
    28    14    15 2   
    29    14    35 1   
    30    15    16 1   
    31    16    17 ar  
    32    16    22 ar  
    33    17    18 1   
    34    17    19 ar  
    35    18    36 1   
    36    18    37 1   
    37    19    20 ar  
    38    20    21 ar  
    39    20    38 1   
    40    21    22 ar  
@<TRIPOS>SUBSTRUCTURE
     1 NEC         1 TEMP              0 ****  ****    0 ROOT
