LIT25-MET-PGD2_protomer_1


 27 27  0  0  0  0  0  0  0  0999 V2000
    1.5562  101.1546   55.2012 C   0  0  0  0  0  0  0  0  0  0  0  0
    1.5042  101.9901   53.9222 C   0  0  0  0  0  0  0  0  0  0  0  0
    2.2717  101.8504   52.9754 O   0  0  0  0  0  0  0  0  0  0  0  0
    0.3864  102.9987   53.9352 C   0  0  0  0  0  0  0  0  0  0  0  0
   -0.4381  102.5022   55.1138 C   0  0  0  0  0  0  0  0  0  0  0  0
   -1.3094  103.4928   55.6153 O   0  0  0  0  0  0  0  0  0  0  0  0
    0.5881  101.9435   56.1201 C   0  0  0  0  0  0  0  0  0  0  0  0
   -0.7882  104.2391   55.9616 H   0  0  0  0  0  0  0  0  0  0  0  0
    0.4590   99.2992   53.7981 C   0  0  0  0  0  0  0  0  0  0  0  0
    1.2128   99.7306   54.8254 C   0  0  0  0  0  0  0  0  0  0  0  0
    0.1387   97.8627   53.4582 C   0  0  0  0  0  0  0  0  0  0  0  0
   -0.6338   97.7805   52.2679 O   0  0  0  0  0  0  0  0  0  0  0  0
   -1.4194   98.3371   52.4041 H   0  0  0  0  0  0  0  0  0  0  0  0
    1.4233   97.0436   53.2883 C   0  0  0  0  0  0  0  0  0  0  0  0
    1.2503   95.5361   53.5189 C   0  0  0  0  0  0  0  0  0  0  0  0
    1.8094   94.6265   52.4208 C   0  0  0  0  0  0  0  0  0  0  0  0
    3.2614   93.7436   54.2805 C   0  0  0  0  0  0  0  0  0  0  0  0
    3.1510   93.9893   52.7834 C   0  0  0  0  0  0  0  0  0  0  0  0
    1.3850  102.9980   56.9276 C   0  0  0  0  0  0  0  0  0  0  0  0
    0.9602  104.4155   56.6716 C   0  0  0  0  0  0  0  0  0  0  0  0
    1.7514  105.4638   56.3902 C   0  0  0  0  0  0  0  0  0  0  0  0
    3.2460  105.4742   56.2165 C   0  0  0  0  0  0  0  0  0  0  0  0
    4.0139  105.4926   57.5396 C   0  0  0  0  0  0  0  0  0  0  0  0
    5.4792  105.8936   57.3841 C   0  0  0  0  0  0  0  0  0  0  0  0
    6.1468  106.3988   58.6665 C   0  0  0  0  0  0  0  0  0  0  0  0
    5.4611  106.3366   59.7231 O   0  0  0  0  0  0  0  0  0  0  0  0
    7.3268  106.8225   58.4992 O   0  0  0  0  0  0  0  0  0  0  0  0
 17 18  1  0
 18 16  1  0
 16 15  1  0
 15 14  1  0
 14 11  1  0
 11 12  1  0
 11  9  1  0
  9 10  2  0
 10  1  1  0
  1  2  1  0
  2  3  2  0
  2  4  1  0
  4  5  1  0
  5  6  1  0
  5  7  1  0
  7 19  1  0
 19 20  1  0
 20 21  2  0
 21 22  1  0
 22 23  1  0
 23 24  1  0
 24 25  1  0
 25 26  2  0
 25 27  1  0
  7  1  1  0
 12 13  1  0
  6  8  1  0
M  CHG 1  27  -1
M  END
> <CANDIDATE_ID>
LIT25-MET-PGD2

> <PRIMARY_PROTOMER>
true

> <PH>
7.4

> <minimizedAffinity>
-6.46267

> <CNNscore>
0.5978970528

> <CNNaffinity>
5.6908545494

> <CNN_VS>
3.4025452137

> <CNNaffinity_variance>
0.0042826533

$$$$
