LIT25-MET-PGD2_protomer_1


 27 27  0  0  0  0  0  0  0  0999 V2000
    1.4996  100.2359   55.5149 C   0  0  0  0  0  0  0  0  0  0  0  0
    2.9714   99.9391   55.2279 C   0  0  0  0  0  0  0  0  0  0  0  0
    3.6015   99.0181   55.7375 O   0  0  0  0  0  0  0  0  0  0  0  0
    3.5687  100.8913   54.2262 C   0  0  0  0  0  0  0  0  0  0  0  0
    2.3149  101.5473   53.6666 C   0  0  0  0  0  0  0  0  0  0  0  0
    2.5921  102.7695   53.0174 O   0  0  0  0  0  0  0  0  0  0  0  0
    1.3352  101.6290   54.8546 C   0  0  0  0  0  0  0  0  0  0  0  0
    2.9503  103.4060   53.6616 H   0  0  0  0  0  0  0  0  0  0  0  0
    0.8235   98.4370   53.8056 C   0  0  0  0  0  0  0  0  0  0  0  0
    0.6919   99.0731   54.9836 C   0  0  0  0  0  0  0  0  0  0  0  0
   -0.0080   97.2769   53.3116 C   0  0  0  0  0  0  0  0  0  0  0  0
   -0.9032   97.6905   52.2879 O   0  0  0  0  0  0  0  0  0  0  0  0
   -1.4279   98.4233   52.6530 H   0  0  0  0  0  0  0  0  0  0  0  0
    0.8875   96.1519   52.7800 C   0  0  0  0  0  0  0  0  0  0  0  0
    2.1981   95.9632   53.5560 C   0  0  0  0  0  0  0  0  0  0  0  0
    3.2026   94.9861   52.9379 C   0  0  0  0  0  0  0  0  0  0  0  0
    4.6759   93.8009   54.6024 C   0  0  0  0  0  0  0  0  0  0  0  0
    4.5576   94.9777   53.6459 C   0  0  0  0  0  0  0  0  0  0  0  0
    1.6304  102.7346   55.8986 C   0  0  0  0  0  0  0  0  0  0  0  0
    0.6342  102.8001   57.0204 C   0  0  0  0  0  0  0  0  0  0  0  0
   -0.3627  103.6874   57.1726 C   0  0  0  0  0  0  0  0  0  0  0  0
   -0.7587  104.8022   56.2427 C   0  0  0  0  0  0  0  0  0  0  0  0
   -2.2365  105.1848   56.3434 C   0  0  0  0  0  0  0  0  0  0  0  0
   -2.8406  104.9118   57.7191 C   0  0  0  0  0  0  0  0  0  0  0  0
   -3.4891  106.1269   58.3888 C   0  0  0  0  0  0  0  0  0  0  0  0
   -3.4218  106.1820   59.6470 O   0  0  0  0  0  0  0  0  0  0  0  0
   -4.0206  106.9385   57.5771 O   0  0  0  0  0  0  0  0  0  0  0  0
 17 18  1  0
 18 16  1  0
 16 15  1  0
 15 14  1  0
 14 11  1  0
 11 12  1  0
 11  9  1  0
  9 10  2  0
 10  1  1  0
  1  2  1  0
  2  3  2  0
  2  4  1  0
  4  5  1  0
  5  6  1  0
  5  7  1  0
  7 19  1  0
 19 20  1  0
 20 21  2  0
 21 22  1  0
 22 23  1  0
 23 24  1  0
 24 25  1  0
 25 26  2  0
 25 27  1  0
  7  1  1  0
 12 13  1  0
  6  8  1  0
M  CHG 1  27  -1
M  END
> <CANDIDATE_ID>
LIT25-MET-PGD2

> <PRIMARY_PROTOMER>
true

> <PH>
7.4

> <minimizedAffinity>
-7.12908

> <CNNscore>
0.5858501792

> <CNNaffinity>
5.7420616150

> <CNN_VS>
3.3639879227

> <CNNaffinity_variance>
0.1929243654

$$$$
