LIT25-MET-PGD2_protomer_1


 27 27  0  0  0  0  0  0  0  0999 V2000
    1.5836  100.2429   55.5351 C   0  0  0  0  0  0  0  0  0  0  0  0
    3.0552   99.9628   55.2307 C   0  0  0  0  0  0  0  0  0  0  0  0
    3.7044   99.0552   55.7404 O   0  0  0  0  0  0  0  0  0  0  0  0
    3.6261  100.9131   54.2118 C   0  0  0  0  0  0  0  0  0  0  0  0
    2.3561  101.5469   53.6634 C   0  0  0  0  0  0  0  0  0  0  0  0
    2.6080  102.7663   52.9987 O   0  0  0  0  0  0  0  0  0  0  0  0
    1.3917  101.6272   54.8639 C   0  0  0  0  0  0  0  0  0  0  0  0
    2.9665  103.4137   53.6319 H   0  0  0  0  0  0  0  0  0  0  0  0
    0.9050   98.4219   53.8503 C   0  0  0  0  0  0  0  0  0  0  0  0
    0.7843   99.0644   55.0260 C   0  0  0  0  0  0  0  0  0  0  0  0
    0.0825   97.2460   53.3790 C   0  0  0  0  0  0  0  0  0  0  0  0
   -0.8161   97.6328   52.3479 O   0  0  0  0  0  0  0  0  0  0  0  0
   -1.3465   98.3683   52.6990 H   0  0  0  0  0  0  0  0  0  0  0  0
    0.9867   96.1181   52.8688 C   0  0  0  0  0  0  0  0  0  0  0  0
    2.4226   96.1619   53.4090 C   0  0  0  0  0  0  0  0  0  0  0  0
    3.2553   94.8954   53.1886 C   0  0  0  0  0  0  0  0  0  0  0  0
    4.6225   93.1350   54.3624 C   0  0  0  0  0  0  0  0  0  0  0  0
    4.2342   94.6053   54.3265 C   0  0  0  0  0  0  0  0  0  0  0  0
    1.6863  102.7467   55.8931 C   0  0  0  0  0  0  0  0  0  0  0  0
    0.8384  102.6800   57.1308 C   0  0  0  0  0  0  0  0  0  0  0  0
   -0.4068  103.1574   57.2909 C   0  0  0  0  0  0  0  0  0  0  0  0
   -1.2771  103.8331   56.2661 C   0  0  0  0  0  0  0  0  0  0  0  0
   -1.3382  105.3536   56.4246 C   0  0  0  0  0  0  0  0  0  0  0  0
   -1.6422  105.8021   57.8524 C   0  0  0  0  0  0  0  0  0  0  0  0
   -3.1322  105.8791   58.1983 C   0  0  0  0  0  0  0  0  0  0  0  0
   -3.9409  105.8138   57.2327 O   0  0  0  0  0  0  0  0  0  0  0  0
   -3.3671  106.0004   59.4352 O   0  0  0  0  0  0  0  0  0  0  0  0
 17 18  1  0
 18 16  1  0
 16 15  1  0
 15 14  1  0
 14 11  1  0
 11 12  1  0
 11  9  1  0
  9 10  2  0
 10  1  1  0
  1  2  1  0
  2  3  2  0
  2  4  1  0
  4  5  1  0
  5  6  1  0
  5  7  1  0
  7 19  1  0
 19 20  1  0
 20 21  2  0
 21 22  1  0
 22 23  1  0
 23 24  1  0
 24 25  1  0
 25 26  2  0
 25 27  1  0
  7  1  1  0
 12 13  1  0
  6  8  1  0
M  CHG 1  27  -1
M  END
> <CANDIDATE_ID>
LIT25-MET-PGD2

> <PRIMARY_PROTOMER>
true

> <PH>
7.4

> <minimizedAffinity>
-7.37773

> <CNNscore>
0.4681845903

> <CNNaffinity>
5.6926479340

> <CNN_VS>
2.6652100086

> <CNNaffinity_variance>
0.1371464878

$$$$
