@<TRIPOS>MOLECULE
ZMA
   40    43     1     0     0
SMALL
bcc


@<TRIPOS>ATOM
      1 C            1.6420   103.0100    55.7990 ca         1 ZMA      -0.089500
      2 C1           1.3650   104.3640    55.6720 ca         1 ZMA      -0.183500
      3 C2           0.1430   104.7470    55.1480 ca         1 ZMA       0.125100
      4 O           -0.1740   106.1290    54.9980 oh         1 ZMA      -0.496100
      5 C3          -0.7910   103.7770    54.7640 ca         1 ZMA      -0.183500
      6 C4          -0.5150   102.4240    54.8580 ca         1 ZMA      -0.089500
      7 C5           0.6820   102.0420    55.4110 ca         1 ZMA      -0.118300
      8 C6           0.9900   100.5800    55.5100 c3         1 ZMA      -0.065100
      9 C7           1.9100   100.3800    54.3160 c3         1 ZMA       0.202800
     10 N            2.3130    99.0160    54.2020 nu         1 ZMA      -0.816900
     11 C8           1.4570    98.1160    53.5180 cc         1 ZMA       0.930900
     12 N1           1.8680    96.8860    53.3500 nd         1 ZMA      -0.768000
     13 N2           0.2830    98.6170    53.1170 nc         1 ZMA      -0.845000
     14 C9          -0.5200    97.7590    52.4980 cd         1 ZMA       0.862400
     15 N3          -1.7310    98.2890    52.0640 nv         1 ZMA      -0.960500
     16 N4          -0.1180    96.5010    52.2980 na         1 ZMA      -0.209600
     17 N5          -0.7810    95.4710    51.7410 nd         1 ZMA      -0.565100
     18 C10          1.0480    96.0690    52.7200 cd         1 ZMA       0.477500
     19 N6           1.2050    94.8120    52.4130 nc         1 ZMA      -0.376300
     20 C11          0.0480    94.4730    51.8090 cc         1 ZMA       0.503300
     21 C12         -0.2690    93.2320    51.3250 cc         1 ZMA       0.224400
     22 C13          0.4580    92.0960    51.1450 cd         1 ZMA      -0.191300
     23 C14         -0.4620    91.1820    50.6770 cd         1 ZMA      -0.276300
     24 C15         -1.6900    91.7760    50.6020 cc         1 ZMA       0.254600
     25 O1          -1.5730    93.0240    51.0240 os         1 ZMA      -0.341800
     26 H            2.4590   102.7360    56.1490 ha         1 ZMA       0.135500
     27 H1           1.9870   105.0020    55.9390 ha         1 ZMA       0.143000
     28 H2          -0.2950   106.3040    54.1750 ho         1 ZMA       0.419000
     29 H3          -1.6020   104.0490    54.4000 ha         1 ZMA       0.143000
     30 H4          -1.1460   101.7900    54.6030 ha         1 ZMA       0.135500
     31 H5           0.1840   100.0490    55.4190 hc         1 ZMA       0.056700
     32 H6           1.4500   100.3780    56.3390 hc         1 ZMA       0.056700
     33 H7           2.6970   100.9360    54.4230 h1         1 ZMA       0.070200
     34 H8           1.4430   100.6420    53.5070 h1         1 ZMA       0.070200
     35 H9           3.0560    98.7470    54.5390 hn         1 ZMA       0.436800
     36 H10         -1.8020    99.1330    51.9150 hn         1 ZMA       0.462300
     37 H11         -2.4080    97.7720    51.9440 hn         1 ZMA       0.462300
     38 H12          1.3680    91.9700    51.2890 ha         1 ZMA       0.180000
     39 H13         -0.2740    90.3040    50.4360 ha         1 ZMA       0.165000
     40 H14         -2.4770    91.3680    50.3180 h4         1 ZMA       0.055100
@<TRIPOS>BOND
     1     1     7 ar  
     2     1     2 ar  
     3     1    26 1   
     4     2     3 ar  
     5     2    27 1   
     6     3     5 ar  
     7     3     4 1   
     8     4    28 1   
     9     5     6 ar  
    10     5    29 1   
    11     6     7 ar  
    12     6    30 1   
    13     7     8 1   
    14     8     9 1   
    15     8    31 1   
    16     8    32 1   
    17     9    10 1   
    18     9    33 1   
    19     9    34 1   
    20    10    11 1   
    21    10    35 1   
    22    11    12 2   
    23    11    13 1   
    24    12    18 1   
    25    13    14 2   
    26    14    16 1   
    27    14    15 1   
    28    15    36 1   
    29    15    37 1   
    30    16    17 1   
    31    16    18 1   
    32    17    20 2   
    33    18    19 2   
    34    19    20 1   
    35    20    21 1   
    36    21    22 2   
    37    21    25 1   
    38    22    23 1   
    39    22    38 1   
    40    23    24 2   
    41    23    39 1   
    42    24    25 1   
    43    24    40 1   
@<TRIPOS>SUBSTRUCTURE
     1 ZMA         1 TEMP              0 ****  ****    0 ROOT
