LIT25-RL-C7_protomer_1


 25 28  0  0  0  0  0  0  0  0999 V2000
   -1.6233   97.9373   52.1667 N   0  0  0  0  0  0  0  0  0  0  0  0
   -0.7360   96.8849   52.2514 C   0  0  0  0  0  0  0  0  0  0  0  0
    0.4473   97.1288   52.7850 N   0  0  0  0  0  0  0  0  0  0  0  0
    1.2826   96.0869   52.8526 C   0  0  0  0  0  0  0  0  0  0  0  0
    0.9826   94.8543   52.4356 N   0  0  0  0  0  0  0  0  0  0  0  0
   -0.2462   94.7338   51.9355 C   0  0  0  0  0  0  0  0  0  0  0  0
   -1.1470   95.7062   51.8265 N   0  0  0  0  0  0  0  0  0  0  0  0
   -1.3949   98.6499   52.8459 H   0  0  0  0  0  0  0  0  0  0  0  0
   -2.5756   97.6005   52.1414 H   0  0  0  0  0  0  0  0  0  0  0  0
    2.6308   96.3089   53.4374 C   0  0  0  0  0  0  0  0  0  0  0  0
    2.9717   97.4972   54.0849 C   0  0  0  0  0  0  0  0  0  0  0  0
    4.2513   97.6502   54.6128 C   0  0  0  0  0  0  0  0  0  0  0  0
    5.1751   96.6171   54.4891 C   0  0  0  0  0  0  0  0  0  0  0  0
    4.7831   95.4554   53.8346 C   0  0  0  0  0  0  0  0  0  0  0  0
    3.5376   95.2986   53.3155 N   0  0  0  0  0  0  0  0  0  0  0  0
    5.6877   94.3678   53.6808 N   0  0  0  0  0  0  0  0  0  0  0  0
    6.8395   94.3829   52.9218 C   0  0  0  0  0  0  0  0  0  0  0  0
    7.4004   93.1368   53.0579 C   0  0  0  0  0  0  0  0  0  0  0  0
    6.6375   92.3493   53.8755 N   0  0  0  0  0  0  0  0  0  0  0  0
    5.6228   93.1082   54.2312 C   0  0  0  0  0  0  0  0  0  0  0  0
   -0.6228   93.4026   51.4799 C   0  0  0  0  0  0  0  0  0  0  0  0
    0.0976   92.2897   51.0842 C   0  0  0  0  0  0  0  0  0  0  0  0
   -0.8454   91.2869   50.7516 C   0  0  0  0  0  0  0  0  0  0  0  0
   -2.0837   91.8440   50.9637 C   0  0  0  0  0  0  0  0  0  0  0  0
   -1.9617   93.1218   51.4051 O   0  0  0  0  0  0  0  0  0  0  0  0
  1  2  1  0
  2  3  2  0
  3  4  1  0
  4 10  1  0
 10 11  2  0
 11 12  1  0
 12 13  2  0
 13 14  1  0
 14 16  1  0
 16 17  1  0
 17 18  2  0
 18 19  1  0
 19 20  2  0
 14 15  2  0
  4  5  2  0
  5  6  1  0
  6 21  1  0
 21 22  2  0
 22 23  1  0
 23 24  2  0
 24 25  1  0
  6  7  2  0
  7  2  1  0
 15 10  1  0
 25 21  1  0
 20 16  1  0
  1  8  1  0
  1  9  1  0
M  END
> <CANDIDATE_ID>
LIT25-RL-C7

> <PRIMARY_PROTOMER>
true

> <PH>
7.4

> <minimizedAffinity>
-9.98478

> <CNNscore>
0.9682598710

> <CNNaffinity>
7.4086279869

> <CNN_VS>
7.1734771729

> <CNNaffinity_variance>
0.0060324692

$$$$
