LIT25-RL-C7_protomer_1


 25 28  0  0  0  0  0  0  0  0999 V2000
   -1.6362   97.9380   52.1776 N   0  0  0  0  0  0  0  0  0  0  0  0
   -0.7448   96.8887   52.2561 C   0  0  0  0  0  0  0  0  0  0  0  0
    0.4380   97.1344   52.7903 N   0  0  0  0  0  0  0  0  0  0  0  0
    1.2773   96.0953   52.8518 C   0  0  0  0  0  0  0  0  0  0  0  0
    0.9818   94.8638   52.4284 N   0  0  0  0  0  0  0  0  0  0  0  0
   -0.2468   94.7412   51.9284 C   0  0  0  0  0  0  0  0  0  0  0  0
   -1.1515   95.7106   51.8252 N   0  0  0  0  0  0  0  0  0  0  0  0
   -1.4101   98.6479   52.8604 H   0  0  0  0  0  0  0  0  0  0  0  0
   -2.5872   97.5977   52.1510 H   0  0  0  0  0  0  0  0  0  0  0  0
    2.6250   96.3195   53.4370 C   0  0  0  0  0  0  0  0  0  0  0  0
    2.9638   97.5083   54.0846 C   0  0  0  0  0  0  0  0  0  0  0  0
    4.2431   97.6632   54.6128 C   0  0  0  0  0  0  0  0  0  0  0  0
    5.1685   96.6317   54.4892 C   0  0  0  0  0  0  0  0  0  0  0  0
    4.7786   95.4693   53.8346 C   0  0  0  0  0  0  0  0  0  0  0  0
    3.5335   95.3106   53.3151 N   0  0  0  0  0  0  0  0  0  0  0  0
    5.6850   94.3832   53.6809 N   0  0  0  0  0  0  0  0  0  0  0  0
    6.8399   94.4021   52.9266 C   0  0  0  0  0  0  0  0  0  0  0  0
    7.4016   93.1561   53.0609 C   0  0  0  0  0  0  0  0  0  0  0  0
    6.6362   92.3652   53.8728 N   0  0  0  0  0  0  0  0  0  0  0  0
    5.6192   93.1218   54.2268 C   0  0  0  0  0  0  0  0  0  0  0  0
   -0.6185   93.4110   51.4660 C   0  0  0  0  0  0  0  0  0  0  0  0
    0.1059   92.3035   51.0624 C   0  0  0  0  0  0  0  0  0  0  0  0
   -0.8334   91.2986   50.7259 C   0  0  0  0  0  0  0  0  0  0  0  0
   -2.0736   91.8490   50.9437 C   0  0  0  0  0  0  0  0  0  0  0  0
   -1.9564   93.1248   51.3922 O   0  0  0  0  0  0  0  0  0  0  0  0
  1  2  1  0
  2  3  2  0
  3  4  1  0
  4 10  1  0
 10 11  2  0
 11 12  1  0
 12 13  2  0
 13 14  1  0
 14 16  1  0
 16 17  1  0
 17 18  2  0
 18 19  1  0
 19 20  2  0
 14 15  2  0
  4  5  2  0
  5  6  1  0
  6 21  1  0
 21 22  2  0
 22 23  1  0
 23 24  2  0
 24 25  1  0
  6  7  2  0
  7  2  1  0
 15 10  1  0
 25 21  1  0
 20 16  1  0
  1  8  1  0
  1  9  1  0
M  END
> <CANDIDATE_ID>
LIT25-RL-C7

> <PRIMARY_PROTOMER>
true

> <PH>
7.4

> <minimizedAffinity>
-9.98372

> <CNNscore>
0.9689607620

> <CNNaffinity>
7.4093928337

> <CNN_VS>
7.1794109344

> <CNNaffinity_variance>
0.0057858913

$$$$
