@<TRIPOS>MOLECULE
C5A
 28 30 0 0 0
SMALL
GASTEIGER

@<TRIPOS>ATOM
      1 N          -2.1938    3.3627    0.8666 N.pl3   1  UNL1       -0.3274
      2 C          -1.7931    2.1021    0.4684 C.ar    1  UNL1        0.2136
      3 N          -0.4907    1.8474    0.4877 N.ar    1  UNL1       -0.2140
      4 C          -0.1001    0.6009    0.1370 C.ar    1  UNL1        0.0838
      5 C           1.3500    0.3776    0.2123 C.ar    1  UNL1        0.0011
      6 C           1.9045   -0.5052    1.1447 C.ar    1  UNL1       -0.0531
      7 C           3.2869   -0.7450    1.1723 C.ar    1  UNL1       -0.0689
      8 C           4.1922   -0.1254    0.2946 C.ar    1  UNL1       -0.1085
      9 O           5.4441   -0.3612    0.3192 O.co2   1  UNL1       -0.8736
     10 C           3.6055    0.7780   -0.6089 C.ar    1  UNL1       -0.0689
     11 C           2.2257    1.0339   -0.6552 C.ar    1  UNL1       -0.0531
     12 C          -1.0093   -0.3924   -0.2565 C.ar    1  UNL1        0.0292
     13 C          -0.6739   -1.7041   -0.6823 C.ar    1  UNL1       -0.0152
     14 C          -1.6732   -2.5959   -1.0416 C.ar    1  UNL1        0.1242
     15 F          -1.3539   -3.8332   -1.4405 F       1  UNL1       -0.2055
     16 C          -3.0036   -2.2168   -0.9926 C.ar    1  UNL1       -0.0244
     17 C          -3.3292   -0.9220   -0.5821 C.ar    1  UNL1       -0.0328
     18 C          -2.3536    0.0003   -0.2169 C.ar    1  UNL1        0.0768
     19 N          -2.7450    1.2225    0.1555 N.ar    1  UNL1       -0.2146
     20 H          -3.1121    3.3046    1.2806 H       1  UNL1        0.1452
     21 H          -1.4539    3.7630    1.4294 H       1  UNL1        0.1452
     22 H           1.2759   -1.0237    1.8619 H       1  UNL1        0.0624
     23 H           3.6826   -1.4455    1.9070 H       1  UNL1        0.0612
     24 H           4.2572    1.3018   -1.3075 H       1  UNL1        0.0612
     25 H           1.8499    1.7464   -1.3832 H       1  UNL1        0.0624
     26 H           0.3627   -2.0290   -0.7427 H       1  UNL1        0.0653
     27 H          -3.7779   -2.9215   -1.2765 H       1  UNL1        0.0647
     28 H          -4.3739   -0.6205   -0.5506 H       1  UNL1        0.0640
@<TRIPOS>UNITY_ATOM_ATTR
9 1
charge -1
@<TRIPOS>BOND
     1     1     2    1
     2     2     3   ar
     3     3     4   ar
     4     4     5    1
     5     5     6   ar
     6     6     7   ar
     7     7     8   ar
     8     8     9    1
     9     8    10   ar
    10    10    11   ar
    11     4    12   ar
    12    12    13   ar
    13    13    14   ar
    14    14    15    1
    15    14    16   ar
    16    16    17   ar
    17    17    18   ar
    18    18    19   ar
    19    19     2   ar
    20    11     5   ar
    21    18    12   ar
    22     1    20    1
    23     1    21    1
    24     6    22    1
    25     7    23    1
    26    10    24    1
    27    11    25    1
    28    13    26    1
    29    16    27    1
    30    17    28    1
