@<TRIPOS>MOLECULE
C9A
 32 35 0 0 0
SMALL
GASTEIGER

@<TRIPOS>ATOM
      1 N           2.0267   -3.2522    1.8778 N.pl3   1  UNL1       -0.3425
      2 C           1.4898   -2.1517    1.2247 C.ar    1  UNL1        0.1294
      3 N           2.3527   -1.2567    0.7234 N.ar    1  UNL1       -0.2094
      4 C           1.8588   -0.1730    0.0964 C.ar    1  UNL1        0.1993
      5 C           2.8194    0.7900   -0.4306 C.ar    1  UNL1        0.1717
      6 C           2.6925    1.9927   -1.1034 C.ar    1  UNL1       -0.0128
      7 C           4.0037    2.4655   -1.3525 C.ar    1  UNL1       -0.0232
      8 C           4.8538    1.5274   -0.8182 C.ar    1  UNL1        0.0927
      9 O           4.1502    0.5110   -0.2575 O.2     1  UNL1       -0.4598
     10 N           0.5637    0.1400   -0.0968 N.ar    1  UNL1       -0.2062
     11 C          -0.2841   -0.7778    0.4107 C.ar    1  UNL1        0.1510
     12 C           0.1133   -1.9287    1.0856 C.ar    1  UNL1        0.0587
     13 C          -1.0589   -2.6151    1.4754 C.ar    1  UNL1       -0.0312
     14 C          -2.1337   -1.8732    1.0439 C.ar    1  UNL1        0.0125
     15 N          -1.6828   -0.7406    0.3777 N.ar    1  UNL1       -0.3006
     16 C          -2.5302    0.2543   -0.2187 C.ar    1  UNL1        0.0508
     17 C          -2.0123    1.2607   -1.0378 C.ar    1  UNL1       -0.0197
     18 C          -2.8829    2.1913   -1.5873 C.ar    1  UNL1        0.0295
     19 N          -4.2145    2.1917   -1.3814 N.ar    1  UNL1       -0.2631
     20 C          -4.6989    1.2154   -0.5907 C.ar    1  UNL1        0.0295
     21 C          -3.9132    0.2377    0.0036 C.ar    1  UNL1       -0.0197
     22 H           3.0057   -3.0916    2.0907 H       1  UNL1        0.1437
     23 H           1.4619   -3.6258    2.6272 H       1  UNL1        0.1437
     24 H           1.7585    2.4636   -1.3761 H       1  UNL1        0.0656
     25 H           4.2937    3.3759   -1.8578 H       1  UNL1        0.0649
     26 H           5.9294    1.4381   -0.7562 H       1  UNL1        0.1029
     27 H          -1.1143   -3.5557    2.0079 H       1  UNL1        0.0640
     28 H          -3.1857   -2.0944    1.1441 H       1  UNL1        0.0813
     29 H          -0.9640    1.3478   -1.2890 H       1  UNL1        0.0653
     30 H          -2.5146    2.9842   -2.2326 H       1  UNL1        0.0830
     31 H          -5.7743    1.2380   -0.4361 H       1  UNL1        0.0830
     32 H          -4.4095   -0.4891    0.6338 H       1  UNL1        0.0653
@<TRIPOS>BOND
     1     1     2    1
     2     2     3   ar
     3     3     4   ar
     4     4     5    1
     5     5     6   ar
     6     6     7   ar
     7     7     8   ar
     8     8     9   ar
     9     4    10   ar
    10    10    11   ar
    11    11    12   ar
    12    12    13   ar
    13    13    14   ar
    14    14    15   ar
    15    15    16    1
    16    16    17   ar
    17    17    18   ar
    18    18    19   ar
    19    19    20   ar
    20    20    21   ar
    21    12     2   ar
    22    21    16   ar
    23     9     5   ar
    24    15    11   ar
    25     1    22    1
    26     1    23    1
    27     6    24    1
    28     7    25    1
    29     8    26    1
    30    13    27    1
    31    14    28    1
    32    17    29    1
    33    18    30    1
    34    20    31    1
    35    21    32    1
