@<TRIPOS>MOLECULE
PGD2
 56 56 0 0 0
SMALL
GASTEIGER

@<TRIPOS>ATOM
      1 C           6.9684    0.5557   -3.0049 C.3     1  UNL1       -0.0653
      2 C           6.1991   -0.2375   -1.9595 C.3     1  UNL1       -0.0559
      3 C           6.5038    0.2607   -0.5466 C.3     1  UNL1       -0.0532
      4 C           5.8407   -0.5767    0.5511 C.3     1  UNL1       -0.0504
      5 C           4.3089   -0.6548    0.4965 C.3     1  UNL1       -0.0232
      6 C           3.6015    0.7031    0.5717 C.3     1  UNL1        0.0734
      7 O           4.0028    1.3788    1.7561 O.3     1  UNL1       -0.3878
      8 C           2.1016    0.5302    0.5282 C.2     1  UNL1       -0.0592
      9 C           1.2410    0.7410    1.5404 C.2     1  UNL1       -0.0750
     10 C          -0.2626    0.5790    1.5398 C.3     1  UNL1        0.0412
     11 C          -0.8713    1.9614    1.7746 C.2     1  UNL1        0.1429
     12 O          -0.7471    2.6025    2.8131 O.2     1  UNL1       -0.2967
     13 C          -1.6290    2.4706    0.5772 C.3     1  UNL1        0.0328
     14 C          -1.1600    1.4999   -0.4967 C.3     1  UNL1        0.0659
     15 O          -2.0218    1.4777   -1.6142 O.3     1  UNL1       -0.3911
     16 C          -0.9718    0.1523    0.2288 C.3     1  UNL1        0.0018
     17 C          -2.2715   -0.6179    0.5706 C.3     1  UNL1       -0.0286
     18 C          -2.9474   -1.2378   -0.6186 C.2     1  UNL1       -0.0876
     19 C          -4.2249   -1.0799   -1.0024 C.2     1  UNL1       -0.0879
     20 C          -5.2803   -0.2136   -0.3700 C.3     1  UNL1       -0.0344
     21 C          -6.2917   -0.9979    0.4682 C.3     1  UNL1       -0.0445
     22 C          -7.1490   -1.9555   -0.3565 C.3     1  UNL1       -0.0129
     23 C          -8.2627   -2.6573    0.4262 C.2     1  UNL1        0.0418
     24 O          -8.3185   -2.4221    1.6640 O.co2   1  UNL1       -0.5498
     25 O          -9.0013   -3.3990   -0.2840 O.co2   1  UNL1       -0.5498
     26 H           6.7050    1.6175   -2.9633 H       1  UNL1        0.0230
     27 H           6.7345    0.1865   -4.0084 H       1  UNL1        0.0230
     28 H           8.0484    0.4627   -2.8522 H       1  UNL1        0.0230
     29 H           5.1283   -0.1490   -2.1721 H       1  UNL1        0.0263
     30 H           6.4635   -1.2976   -2.0462 H       1  UNL1        0.0263
     31 H           7.5887    0.2336   -0.3837 H       1  UNL1        0.0265
     32 H           6.2067    1.3112   -0.4497 H       1  UNL1        0.0265
     33 H           6.2382   -1.5985    0.5045 H       1  UNL1        0.0266
     34 H           6.1474   -0.1769    1.5255 H       1  UNL1        0.0266
     35 H           3.9901   -1.2721    1.3477 H       1  UNL1        0.0293
     36 H           3.9979   -1.1925   -0.4073 H       1  UNL1        0.0293
     37 H           3.8924    1.3302   -0.2780 H       1  UNL1        0.0637
     38 H           3.5093    2.2163    1.7824 H       1  UNL1        0.2102
     39 H           1.7317    0.1985   -0.4393 H       1  UNL1        0.0595
     40 H           1.6427    1.0452    2.5094 H       1  UNL1        0.0577
     41 H          -0.5436   -0.0790    2.3697 H       1  UNL1        0.0424
     42 H          -1.3460    3.4985    0.3372 H       1  UNL1        0.0367
     43 H          -2.7064    2.4138    0.7540 H       1  UNL1        0.0367
     44 H          -0.1861    1.8380   -0.8723 H       1  UNL1        0.0600
     45 H          -2.8996    1.1558   -1.3415 H       1  UNL1        0.2098
     46 H          -0.3507   -0.5177   -0.3767 H       1  UNL1        0.0338
     47 H          -2.0125   -1.4480    1.2418 H       1  UNL1        0.0311
     48 H          -2.9544    0.0184    1.1408 H       1  UNL1        0.0311
     49 H          -2.3357   -1.9277   -1.2001 H       1  UNL1        0.0569
     50 H          -4.5650   -1.6448   -1.8715 H       1  UNL1        0.0569
     51 H          -4.8258    0.5587    0.2591 H       1  UNL1        0.0307
     52 H          -5.8024    0.3296   -1.1675 H       1  UNL1        0.0307
     53 H          -6.9444   -0.2761    0.9756 H       1  UNL1        0.0272
     54 H          -5.7687   -1.5529    1.2575 H       1  UNL1        0.0272
     55 H          -6.5206   -2.7380   -0.7978 H       1  UNL1        0.0325
     56 H          -7.6196   -1.4066   -1.1817 H       1  UNL1        0.0325
@<TRIPOS>UNITY_ATOM_ATTR
25 1
charge -1
@<TRIPOS>BOND
     1     1     2    1
     2     2     3    1
     3     3     4    1
     4     4     5    1
     5     5     6    1
     6     6     7    1
     7     6     8    1
     8     8     9    2
     9     9    10    1
    10    10    11    1
    11    11    12    2
    12    11    13    1
    13    13    14    1
    14    14    15    1
    15    14    16    1
    16    16    17    1
    17    17    18    1
    18    18    19    2
    19    19    20    1
    20    20    21    1
    21    21    22    1
    22    22    23    1
    23    23    24   ar
    24    23    25   ar
    25    16    10    1
    26     1    26    1
    27     1    27    1
    28     1    28    1
    29     2    29    1
    30     2    30    1
    31     3    31    1
    32     3    32    1
    33     4    33    1
    34     4    34    1
    35     5    35    1
    36     5    36    1
    37     6    37    1
    38     7    38    1
    39     8    39    1
    40     9    40    1
    41    10    41    1
    42    13    42    1
    43    13    43    1
    44    14    44    1
    45    15    45    1
    46    16    46    1
    47    17    47    1
    48    17    48    1
    49    18    49    1
    50    19    50    1
    51    20    51    1
    52    20    52    1
    53    21    53    1
    54    21    54    1
    55    22    55    1
    56    22    56    1
