@<TRIPOS>MOLECULE
ZMA
 40 43 0 0 0
SMALL
GASTEIGER

@<TRIPOS>ATOM
      1 C           1.6420  103.0100   55.7990 C.ar    1  UNL1       -0.0551
      2 C           1.3650  104.3640   55.6720 C.ar    1  UNL1       -0.0199
      3 C           0.1430  104.7470   55.1480 C.ar    1  UNL1        0.1169
      4 O          -0.1740  106.1290   54.9980 O.3     1  UNL1       -0.5068
      5 C          -0.7910  103.7770   54.7640 C.ar    1  UNL1       -0.0199
      6 C          -0.5150  102.4240   54.8580 C.ar    1  UNL1       -0.0551
      7 C           0.6820  102.0420   55.4110 C.ar    1  UNL1       -0.0457
      8 C           0.9900  100.5800   55.5100 C.3     1  UNL1       -0.0120
      9 C           1.9100  100.3800   54.3160 C.3     1  UNL1        0.0158
     10 N           2.3130   99.0160   54.2020 N.pl3   1  UNL1       -0.3130
     11 C           1.4570   98.1160   53.5180 C.ar    1  UNL1        0.2213
     12 N           1.8680   96.8860   53.3500 N.ar    1  UNL1       -0.1771
     13 N           0.2830   98.6170   53.1170 N.ar    1  UNL1       -0.1812
     14 C          -0.5200   97.7590   52.4980 C.ar    1  UNL1        0.2198
     15 N          -1.7310   98.2890   52.0640 N.pl3   1  UNL1       -0.3273
     16 N          -0.1180   96.5010   52.2980 N.ar    1  UNL1       -0.1644
     17 N          -0.7810   95.4710   51.7410 N.ar    1  UNL1       -0.1375
     18 C           1.0480   96.0690   52.7200 C.ar    1  UNL1        0.2593
     19 N           1.2050   94.8120   52.4130 N.ar    1  UNL1       -0.1861
     20 C           0.0480   94.4730   51.8090 C.ar    1  UNL1        0.2189
     21 C          -0.2690   93.2320   51.3250 C.ar    1  UNL1        0.1734
     22 C           0.4580   92.0960   51.1450 C.ar    1  UNL1       -0.0127
     23 C          -0.4620   91.1820   50.6770 C.ar    1  UNL1       -0.0232
     24 C          -1.6900   91.7760   50.6020 C.ar    1  UNL1        0.0927
     25 O          -1.5730   93.0240   51.0240 O.2     1  UNL1       -0.4597
     26 H           2.4590  102.7360   56.1490 H       1  UNL1        0.0621
     27 H           1.9870  105.0020   55.9390 H       1  UNL1        0.0654
     28 H          -0.2950  106.3040   54.1750 H       1  UNL1        0.2921
     29 H          -1.6020  104.0490   54.4000 H       1  UNL1        0.0654
     30 H          -1.1460  101.7900   54.6030 H       1  UNL1        0.0621
     31 H           0.1840  100.0490   55.4190 H       1  UNL1        0.0328
     32 H           1.4500  100.3780   56.3390 H       1  UNL1        0.0328
     33 H           2.6970  100.9360   54.4230 H       1  UNL1        0.0465
     34 H           1.4430  100.6420   53.5070 H       1  UNL1        0.0465
     35 H           3.0560   98.7470   54.5390 H       1  UNL1        0.1489
     36 H          -1.8020   99.1330   51.9150 H       1  UNL1        0.1452
     37 H          -2.4080   97.7720   51.9440 H       1  UNL1        0.1452
     38 H           1.3680   91.9700   51.2890 H       1  UNL1        0.0656
     39 H          -0.2740   90.3040   50.4360 H       1  UNL1        0.0649
     40 H          -2.4770   91.3680   50.3180 H       1  UNL1        0.1029
@<TRIPOS>BOND
     1     1     7   ar
     2     1     2   ar
     3     1    26    1
     4     2     3   ar
     5     2    27    1
     6     3     5   ar
     7     3     4    1
     8     4    28    1
     9     5     6   ar
    10     5    29    1
    11     6     7   ar
    12     6    30    1
    13     7     8    1
    14     8     9    1
    15     8    31    1
    16     8    32    1
    17     9    10    1
    18     9    33    1
    19     9    34    1
    20    10    11    1
    21    10    35    1
    22    11    12   ar
    23    11    13   ar
    24    12    18   ar
    25    13    14   ar
    26    14    16   ar
    27    14    15    1
    28    15    36    1
    29    15    37    1
    30    16    17   ar
    31    16    18   ar
    32    17    20   ar
    33    18    19   ar
    34    19    20   ar
    35    20    21    1
    36    21    22   ar
    37    21    25   ar
    38    22    23   ar
    39    22    38    1
    40    23    24   ar
    41    23    39    1
    42    24    25   ar
    43    24    40    1
