@<TRIPOS>MOLECULE
PG2
   56    56     1     0     0
SMALL
bcc


@<TRIPOS>ATOM
1 C 6.9680 0.5560 -3.0050 C.3 1 PG2 -0.092100
2 C1 6.1990 -0.2370 -1.9600 C.3 1 PG2 -0.081400
3 C2 6.5040 0.2610 -0.5470 C.3 1 PG2 -0.079400
4 C3 5.8410 -0.5770 0.5510 C.3 1 PG2 -0.079400
5 C4 4.3090 -0.6550 0.4960 C.3 1 PG2 -0.070400
6 C5 3.6020 0.7030 0.5720 C.3 1 PG2 0.174300
7 O 4.0030 1.3790 1.7560 O.3 1 PG2 -0.601800
8 C6 2.1020 0.5300 0.5280 C.2 1 PG2 -0.214200
9 C7 1.2410 0.7410 1.5400 C.2 1 PG2 -0.139200
10 C8 -0.2630 0.5790 1.5400 C.3 1 PG2 -0.139500
11 C9 -0.8710 1.9610 1.7750 C.2 1 PG2 0.581100
12 O1 -0.7470 2.6030 2.8130 O.2 1 PG2 -0.530100
13 C10 -1.6290 2.4710 0.5770 C.3 1 PG2 -0.224400
14 C11 -1.1600 1.5000 -0.4970 C.3 1 PG2 0.151100
15 O2 -2.0220 1.4780 -1.6140 O.3 1 PG2 -0.588800
16 C12 -0.9720 0.1520 0.2290 C.3 1 PG2 -0.093700
17 C13 -2.2720 -0.6180 0.5710 C.3 1 PG2 -0.039200
18 C14 -2.9470 -1.2380 -0.6190 C.2 1 PG2 -0.250200
19 C15 -4.2250 -1.0800 -1.0020 C.2 1 PG2 -0.113200
20 C16 -5.2800 -0.2140 -0.3700 C.3 1 PG2 -0.060200
21 C17 -6.2920 -0.9980 0.4680 C.3 1 PG2 -0.066400
22 C18 -7.1490 -1.9560 -0.3560 C.3 1 PG2 -0.197400
23 C19 -8.2630 -2.6570 0.4260 C.2 1 PG2 0.908600
24 O3 -8.3190 -2.4220 1.6640 O.co2 1 PG2 -0.850300
25 O4 -9.0010 -3.3990 -0.2840 O.co2 1 PG2 -0.850300
26 H 6.7050 1.6170 -2.9630 H 1 PG2 0.031367
27 H1 6.7340 0.1860 -4.0080 H 1 PG2 0.031367
28 H2 8.0480 0.4630 -2.8520 H 1 PG2 0.031367
29 H3 5.1280 -0.1490 -2.1720 H 1 PG2 0.040200
30 H4 6.4630 -1.2980 -2.0460 H 1 PG2 0.040200
31 H5 7.5890 0.2340 -0.3840 H 1 PG2 0.036700
32 H6 6.2070 1.3110 -0.4500 H 1 PG2 0.036700
33 H7 6.2380 -1.5990 0.5040 H 1 PG2 0.047700
34 H8 6.1470 -0.1770 1.5260 H 1 PG2 0.047700
35 H9 3.9900 -1.2720 1.3480 H 1 PG2 0.055200
36 H10 3.9980 -1.1920 -0.4070 H 1 PG2 0.055200
37 H11 3.8920 1.3300 -0.2780 H 1 PG2 0.036700
38 H12 3.5090 2.2160 1.7820 H 1 PG2 0.402000
39 H13 1.7320 0.1990 -0.4390 H 1 PG2 0.131000
40 H14 1.6430 1.0450 2.5090 H 1 PG2 0.137000
41 H15 -0.5440 -0.0790 2.3700 H 1 PG2 0.093700
42 H16 -1.3460 3.4980 0.3370 H 1 PG2 0.083700
43 H17 -2.7060 2.4140 0.7540 H 1 PG2 0.083700
44 H18 -0.1860 1.8380 -0.8720 H 1 PG2 0.067700
45 H19 -2.9000 1.1560 -1.3410 H 1 PG2 0.419000
46 H20 -0.3510 -0.5180 -0.3770 H 1 PG2 0.072700
47 H21 -2.0130 -1.4480 1.2420 H 1 PG2 0.047700
48 H22 -2.9540 0.0180 1.1410 H 1 PG2 0.047700
49 H23 -2.3360 -1.9280 -1.2000 H 1 PG2 0.124000
50 H24 -4.5650 -1.6450 -1.8710 H 1 PG2 0.139000
51 H25 -4.8260 0.5590 0.2590 H 1 PG2 0.034700
52 H26 -5.8020 0.3300 -1.1670 H 1 PG2 0.034700
53 H27 -6.9440 -0.2760 0.9760 H 1 PG2 0.049200
54 H28 -5.7690 -1.5530 1.2580 H 1 PG2 0.049200
55 H29 -6.5210 -2.7380 -0.7980 H 1 PG2 0.019200
56 H30 -7.6200 -1.4070 -1.1820 H 1 PG2 0.019200
@<TRIPOS>BOND
     1     1     2 1   
     2     2     3 1   
     3     3     4 1   
     4     4     5 1   
     5     5     6 1   
     6     6     7 1   
     7     6     8 1   
     8     8     9 2   
     9     9    10 1   
    10    10    11 1   
    11    11    12 2   
    12    11    13 1   
    13    13    14 1   
    14    14    15 1   
    15    14    16 1   
    16    16    17 1   
    17    17    18 1   
    18    18    19 2   
    19    19    20 1   
    20    20    21 1   
    21    21    22 1   
    22    22    23 1   
    23    23    24 1   
    24    23    25 1   
    25    16    10 1   
    26     1    26 1   
    27     1    27 1   
    28     1    28 1   
    29     2    29 1   
    30     2    30 1   
    31     3    31 1   
    32     3    32 1   
    33     4    33 1   
    34     4    34 1   
    35     5    35 1   
    36     5    36 1   
    37     6    37 1   
    38     7    38 1   
    39     8    39 1   
    40     9    40 1   
    41    10    41 1   
    42    13    42 1   
    43    13    43 1   
    44    14    44 1   
    45    15    45 1   
    46    16    46 1   
    47    17    47 1   
    48    17    48 1   
    49    18    49 1   
    50    19    50 1   
    51    20    51 1   
    52    20    52 1   
    53    21    53 1   
    54    21    54 1   
    55    22    55 1   
    56    22    56 1   
@<TRIPOS>SUBSTRUCTURE
     1 PG2         1 TEMP              0 ****  ****    0 ROOT
