docking_inputs/siglec9/bridge_sources/5BNP_3SLN.pdb
 OpenBabel08242614273D

 88 90  0  0  1  0  0  0  0  0999 V2000
  -42.9110  -41.5360  136.5440 C   0  0  2  0  0  0  0  0  0  0  0  0
  -44.1410  -41.5230  135.7870 C   0  0  1  0  0  0  0  0  0  0  0  0
  -44.0150  -40.6280  134.5670 C   0  0  2  0  0  0  0  0  0  0  0  0
  -43.6570  -39.2150  135.0490 C   0  0  1  0  0  0  0  0  0  0  0  0
  -42.2890  -39.3110  135.9300 C   0  0  1  0  0  0  0  0  0  0  0  0
  -41.8710  -38.1610  136.8980 C   0  0  0  0  0  0  0  0  0  0  0  0
  -45.4540  -43.5750  135.7400 C   0  0  0  0  0  0  0  0  0  0  0  0
  -46.5890  -43.0300  136.5960 C   0  0  0  0  0  0  0  0  0  0  0  0
  -44.3880  -42.8440  135.4170 N   0  0  0  0  0  0  0  0  0  0  0  0
  -43.0710  -42.3230  137.6190 O   0  0  0  0  0  0  0  0  0  0  0  0
  -45.2350  -40.7300  133.8310 O   0  0  0  0  0  0  0  0  0  0  0  0
  -43.5530  -38.4940  133.8710 O   0  0  0  0  0  0  0  0  0  0  0  0
  -42.5260  -40.2970  136.9290 O   0  0  0  0  0  0  0  0  0  0  0  0
  -40.5920  -38.5240  137.5600 O   0  0  0  0  0  0  0  0  0  0  0  0
  -45.5010  -44.7110  135.3290 O   0  0  0  0  0  0  0  0  0  0  0  0
  -44.3500  -37.3430  133.6900 C   0  0  1  0  0  0  0  0  0  0  0  0
  -43.5300  -36.4550  132.6710 C   0  0  1  0  0  0  0  0  0  0  0  0
  -44.5410  -35.2670  132.1490 C   0  0  2  0  0  0  0  0  0  0  0  0
  -45.8180  -35.9100  131.6040 C   0  0  2  0  0  0  0  0  0  0  0  0
  -46.3740  -36.7580  132.7390 C   0  0  1  0  0  0  0  0  0  0  0  0
  -47.5970  -37.4450  132.3060 C   0  0  0  0  0  0  0  0  0  0  0  0
  -42.4300  -36.1370  133.1670 O   0  0  0  0  0  0  0  0  0  0  0  0
  -44.0270  -34.4340  131.0250 O   0  0  0  0  0  0  0  0  0  0  0  0
  -45.6210  -36.5870  130.3280 O   0  0  0  0  0  0  0  0  0  0  0  0
  -45.5750  -37.7160  133.2390 O   0  0  0  0  0  0  0  0  0  0  0  0
  -48.2700  -37.5700  133.5300 O   0  0  0  0  0  0  0  0  0  0  0  0
  -45.1750  -33.0980  129.4210 C   0  0  0  0  0  0  0  0  0  0  0  0
  -44.1900  -33.0940  130.7120 C   0  0  2  0  0  0  0  0  0  0  0  0
  -42.8210  -32.3470  130.3910 C   0  0  0  0  0  0  0  0  0  0  0  0
  -42.9150  -30.9040  130.5390 C   0  0  1  0  0  0  0  0  0  0  0  0
  -43.6370  -30.5010  131.8800 C   0  0  2  0  0  0  0  0  0  0  0  0
  -44.9410  -31.1890  131.9460 C   0  0  2  0  0  0  0  0  0  0  0  0
  -45.8010  -30.9190  133.2720 C   0  0  1  0  0  0  0  0  0  0  0  0
  -47.1520  -31.7130  133.2140 C   0  0  1  0  0  0  0  0  0  0  0  0
  -47.9250  -31.3910  134.5390 C   0  0  0  0  0  0  0  0  0  0  0  0
  -43.6370  -28.1840  132.8990 C   0  0  0  0  0  0  0  0  0  0  0  0
  -44.0750  -26.7860  132.4610 C   0  0  0  0  0  0  0  0  0  0  0  0
  -43.8460  -29.0720  131.9990 N   0  0  0  0  0  0  0  0  0  0  0  0
  -46.3850  -32.7230  129.4900 O   0  0  0  0  0  0  0  0  0  0  0  0
  -44.7390  -33.4770  128.3560 O   0  0  0  0  0  0  0  0  0  0  0  0
  -41.7930  -30.3910  130.3890 O   0  0  0  0  0  0  0  0  0  0  0  0
  -44.6550  -32.5680  131.8350 O   0  0  0  0  0  0  0  0  0  0  0  0
  -45.1620  -31.1400  134.4830 O   0  0  0  0  0  0  0  0  0  0  0  0
  -47.8800  -31.4210  132.0830 O   0  0  0  0  0  0  0  0  0  0  0  0
  -49.0830  -30.9200  134.2620 O   0  0  0  0  0  0  0  0  0  0  0  0
  -43.1740  -28.3350  133.9610 O   0  0  0  0  0  0  0  0  0  0  0  0
  -42.1371  -41.9171  135.9109 H   0  0  0  0  0  0  0  0  0  0  0  0
  -44.9492  -41.1311  136.3684 H   0  0  0  0  0  0  0  0  0  0  0  0
  -43.2321  -40.9166  133.8972 H   0  0  0  0  0  0  0  0  0  0  0  0
  -44.3637  -38.7391  135.6963 H   0  0  0  0  0  0  0  0  0  0  0  0
  -41.5579  -39.4134  135.1555 H   0  0  0  0  0  0  0  0  0  0  0  0
  -42.6308  -38.0219  137.6384 H   0  0  0  0  0  0  0  0  0  0  0  0
  -41.7463  -37.2527  136.3463 H   0  0  0  0  0  0  0  0  0  0  0  0
  -46.3772  -42.0165  136.8660 H   0  0  0  0  0  0  0  0  0  0  0  0
  -46.6840  -43.6227  137.4818 H   0  0  0  0  0  0  0  0  0  0  0  0
  -47.5035  -43.0678  136.0418 H   0  0  0  0  0  0  0  0  0  0  0  0
  -43.7046  -43.2818  134.8598 H   0  0  0  0  0  0  0  0  0  0  0  0
  -43.7751  -41.9634  138.1810 H   0  0  0  0  0  0  0  0  0  0  0  0
  -45.9783  -40.4766  134.4004 H   0  0  0  0  0  0  0  0  0  0  0  0
  -40.7086  -39.3475  138.0591 H   0  0  0  0  0  0  0  0  0  0  0  0
  -44.5406  -36.7864  134.5838 H   0  0  0  0  0  0  0  0  0  0  0  0
  -43.2212  -36.9644  131.7821 H   0  0  0  0  0  0  0  0  0  0  0  0
  -44.6756  -34.6379  133.0040 H   0  0  0  0  0  0  0  0  0  0  0  0
  -46.5511  -35.1807  131.3291 H   0  0  0  0  0  0  0  0  0  0  0  0
  -46.5209  -36.0351  133.5141 H   0  0  0  0  0  0  0  0  0  0  0  0
  -47.3814  -38.4003  131.8749 H   0  0  0  0  0  0  0  0  0  0  0  0
  -48.1488  -36.9337  131.5451 H   0  0  0  0  0  0  0  0  0  0  0  0
  -42.5763  -35.6574  133.9973 H   0  0  0  0  0  0  0  0  0  0  0  0
  -44.9630  -37.2918  130.4341 H   0  0  0  0  0  0  0  0  0  0  0  0
  -47.7060  -38.0421  134.1624 H   0  0  0  0  0  0  0  0  0  0  0  0
  -42.5393  -32.5690  129.3829 H   0  0  0  0  0  0  0  0  0  0  0  0
  -42.0932  -32.6949  131.0940 H   0  0  0  0  0  0  0  0  0  0  0  0
  -43.5401  -30.5061  129.7671 H   0  0  0  0  0  0  0  0  0  0  0  0
  -43.0013  -30.7959  132.6886 H   0  0  0  0  0  0  0  0  0  0  0  0
  -45.5562  -30.8067  131.1584 H   0  0  0  0  0  0  0  0  0  0  0  0
  -45.9726  -29.8629  133.2604 H   0  0  0  0  0  0  0  0  0  0  0  0
  -46.9692  -32.7650  133.1450 H   0  0  0  0  0  0  0  0  0  0  0  0
  -47.3741  -30.6693  135.1052 H   0  0  0  0  0  0  0  0  0  0  0  0
  -48.0362  -32.2889  135.1103 H   0  0  0  0  0  0  0  0  0  0  0  0
  -44.4731  -26.8315  131.4688 H   0  0  0  0  0  0  0  0  0  0  0  0
  -43.2324  -26.1268  132.4774 H   0  0  0  0  0  0  0  0  0  0  0  0
  -44.8261  -26.4215  133.1303 H   0  0  0  0  0  0  0  0  0  0  0  0
  -44.2485  -28.6880  131.1867 H   0  0  0  0  0  0  0  0  0  0  0  0
  -43.8475  -33.7574  128.2877 H   0  0  0  0  0  0  0  0  0  0  0  0
  -41.1906  -30.7256  131.0717 H   0  0  0  0  0  0  0  0  0  0  0  0
  -44.9663  -32.0853  134.5776 H   0  0  0  0  0  0  0  0  0  0  0  0
  -48.0895  -30.4740  132.0688 H   0  0  0  0  0  0  0  0  0  0  0  0
  -48.9854  -30.1057  133.7440 H   0  0  0  0  0  0  0  0  0  0  0  0
  1  2  1  0  0  0  0
  1 10  1  0  0  0  0
  1 13  1  0  0  0  0
  1 47  1  6  0  0  0
  2  3  1  0  0  0  0
  2  9  1  0  0  0  0
  2 48  1  1  0  0  0
  3  4  1  0  0  0  0
  3 11  1  0  0  0  0
  3 49  1  6  0  0  0
  4  5  1  0  0  0  0
  4 12  1  0  0  0  0
  4 50  1  1  0  0  0
  5  6  1  0  0  0  0
  5 13  1  0  0  0  0
  5 51  1  6  0  0  0
  6 14  1  0  0  0  0
  6 52  1  0  0  0  0
  6 53  1  0  0  0  0
  7  8  1  0  0  0  0
  7  9  1  0  0  0  0
  7 15  2  0  0  0  0
  8 54  1  0  0  0  0
  8 55  1  0  0  0  0
  8 56  1  0  0  0  0
  9 57  1  0  0  0  0
 10 58  1  0  0  0  0
 11 59  1  0  0  0  0
 12 16  1  0  0  0  0
 14 60  1  0  0  0  0
 16 17  1  0  0  0  0
 16 25  1  0  0  0  0
 16 61  1  1  0  0  0
 17 18  1  0  0  0  0
 17 22  1  0  0  0  0
 17 62  1  6  0  0  0
 18 19  1  0  0  0  0
 18 23  1  0  0  0  0
 18 63  1  1  0  0  0
 19 20  1  0  0  0  0
 19 24  1  0  0  0  0
 19 64  1  6  0  0  0
 20 21  1  0  0  0  0
 20 25  1  0  0  0  0
 20 65  1  1  0  0  0
 21 26  1  0  0  0  0
 21 66  1  0  0  0  0
 21 67  1  0  0  0  0
 22 68  1  0  0  0  0
 24 69  1  0  0  0  0
 26 70  1  0  0  0  0
 27 28  1  0  0  0  0
 27 39  2  0  0  0  0
 27 40  1  0  0  0  0
 28 23  1  1  0  0  0
 28 29  1  0  0  0  0
 28 42  1  0  0  0  0
 29 30  1  0  0  0  0
 29 71  1  0  0  0  0
 29 72  1  0  0  0  0
 30 31  1  0  0  0  0
 30 41  1  0  0  0  0
 30 73  1  6  0  0  0
 31 32  1  0  0  0  0
 31 38  1  0  0  0  0
 31 74  1  1  0  0  0
 32 33  1  0  0  0  0
 32 42  1  0  0  0  0
 32 75  1  6  0  0  0
 33 34  1  0  0  0  0
 33 43  1  0  0  0  0
 33 76  1  6  0  0  0
 34 35  1  0  0  0  0
 34 44  1  0  0  0  0
 34 77  1  6  0  0  0
 35 45  1  0  0  0  0
 35 78  1  0  0  0  0
 35 79  1  0  0  0  0
 36 37  1  0  0  0  0
 36 38  1  0  0  0  0
 36 46  2  0  0  0  0
 37 80  1  0  0  0  0
 37 81  1  0  0  0  0
 37 82  1  0  0  0  0
 38 83  1  0  0  0  0
 40 84  1  0  0  0  0
 41 85  1  0  0  0  0
 43 86  1  0  0  0  0
 44 87  1  0  0  0  0
 45 88  1  0  0  0  0
M  END
$$$$
