docking_inputs/siglec9/bridge_sources/2N7B_6prime_sulfo_sLeX.pdb
 OpenBabel08242614273D

113116  0  0  1  0  0  0  0  0999 V2000
    6.0130  -18.6930  -18.5730 C   0  0  0  0  0  0  0  0  0  0  0  0
    6.9170  -19.2000  -19.6990 C   0  0  1  0  0  0  0  0  0  0  0  0
    6.7610  -18.3420  -20.9480 C   0  0  2  0  0  0  0  0  0  0  0  0
    5.2900  -18.2740  -21.3470 C   0  0  1  0  0  0  0  0  0  0  0  0
    4.4100  -17.7950  -20.1940 C   0  0  1  0  0  0  0  0  0  0  0  0
    2.9240  -17.7630  -20.5510 C   0  0  0  0  0  0  0  0  0  0  0  0
    9.0990  -20.2550  -19.1720 C   0  0  0  0  0  0  0  0  0  0  0  0
    8.5060  -21.6240  -19.5450 C   0  0  0  0  0  0  0  0  0  0  0  0
    8.3100  -19.1790  -19.2560 N   0  0  0  0  0  0  0  0  0  0  0  0
    7.5060  -18.9670  -22.0560 O   0  0  0  0  0  0  0  0  0  0  0  0
    5.1620  -17.3080  -22.4430 O   0  0  0  0  0  0  0  0  0  0  0  0
    4.6200  -18.6880  -19.0460 O   0  0  0  0  0  0  0  0  0  0  0  0
    2.5160  -19.0740  -20.9650 O   0  0  0  0  0  0  0  0  0  0  0  0
   10.2690  -20.1540  -18.8020 O   0  0  0  0  0  0  0  0  0  0  0  0
    4.3750  -17.8410  -23.5570 C   0  0  1  0  0  0  0  0  0  0  0  0
    4.0670  -16.7110  -24.5280 C   0  0  1  0  0  0  0  0  0  0  0  0
    3.1890  -17.2540  -25.6550 C   0  0  2  0  0  0  0  0  0  0  0  0
    3.9690  -18.3430  -26.3930 C   0  0  2  0  0  0  0  0  0  0  0  0
    4.4400  -19.4540  -25.4460 C   0  0  1  0  0  0  0  0  0  0  0  0
    5.4200  -20.4300  -26.0830 C   0  0  0  0  0  0  0  0  0  0  0  0
    3.3940  -15.6720  -23.7990 O   0  0  0  0  0  0  0  0  0  0  0  0
    5.1350  -17.7380  -26.9900 O   0  0  0  0  0  0  0  0  0  0  0  0
    5.1230  -18.8680  -24.2810 O   0  0  0  0  0  0  0  0  0  0  0  0
    4.8900  -21.7840  -25.9810 O   0  0  0  0  0  0  0  0  0  0  0  0
    5.7480  -22.9700  -26.5790 S   0  0  0  0  0  0  0  0  0  0  0  0
    7.0360  -22.8900  -25.9430 O   0  0  0  0  0  0  0  0  0  0  0  0
    5.0390  -24.1750  -26.2340 O   0  0  0  0  0  0  0  0  0  0  0  0
    5.8140  -22.7530  -27.9990 O   0  0  0  0  0  0  0  0  0  0  0  0
    2.8400  -16.1750  -26.6090 O   0  0  0  0  0  0  0  0  0  0  0  0
    0.4900  -16.4760  -27.3460 C   0  0  0  0  0  0  0  0  0  0  0  0
    1.5190  -15.6580  -26.4950 C   0  0  2  0  0  0  0  0  0  0  0  0
    1.6330  -14.2550  -27.1000 C   0  0  0  0  0  0  0  0  0  0  0  0
    0.4430  -13.3840  -26.7300 C   0  0  1  0  0  0  0  0  0  0  0  0
    0.2870  -13.3020  -25.2140 C   0  0  2  0  0  0  0  0  0  0  0  0
    0.0630  -14.7210  -24.6990 C   0  0  2  0  0  0  0  0  0  0  0  0
   -0.0120  -14.8580  -23.1740 C   0  0  1  0  0  0  0  0  0  0  0  0
   -0.1040  -16.3270  -22.7330 C   0  0  1  0  0  0  0  0  0  0  0  0
   -0.3740  -16.5180  -21.2390 C   0  0  0  0  0  0  0  0  0  0  0  0
   -0.6990  -11.2690  -24.2600 C   0  0  0  0  0  0  0  0  0  0  0  0
   -1.9940  -10.4820  -24.0090 C   0  0  0  0  0  0  0  0  0  0  0  0
   -0.8480  -12.4460  -24.8770 N   0  0  0  0  0  0  0  0  0  0  0  0
    0.8550  -16.8360  -28.4890 O   0  0  0  0  0  0  0  0  0  0  0  0
   -0.6290  -16.7200  -26.8410 O   0  0  0  0  0  0  0  0  0  0  0  0
    0.6780  -12.0710  -27.2630 O   0  0  0  0  0  0  0  0  0  0  0  0
    1.1590  -15.5250  -25.1190 O   0  0  0  0  0  0  0  0  0  0  0  0
    1.2000  -14.3070  -22.6230 O   0  0  0  0  0  0  0  0  0  0  0  0
   -1.2040  -16.9270  -23.4340 O   0  0  0  0  0  0  0  0  0  0  0  0
   -0.2460  -17.9120  -20.9170 O   0  0  0  0  0  0  0  0  0  0  0  0
    0.3940  -10.8290  -23.9110 O   0  0  0  0  0  0  0  0  0  0  0  0
    8.7680  -18.2910  -22.3920 C   0  0  1  0  0  0  0  0  0  0  0  0
    9.5960  -19.1830  -23.3280 C   0  0  2  0  0  0  0  0  0  0  0  0
    8.9930  -19.2590  -24.7330 C   0  0  1  0  0  0  0  0  0  0  0  0
    8.7620  -17.8630  -25.3040 C   0  0  1  0  0  0  0  0  0  0  0  0
    7.8770  -17.0630  -24.3520 C   0  0  2  0  0  0  0  0  0  0  0  0
    7.5770  -15.6490  -24.8270 C   0  0  0  0  0  0  0  0  0  0  0  0
    9.6320  -20.5140  -22.7700 O   0  0  0  0  0  0  0  0  0  0  0  0
    9.8980  -19.9640  -25.6030 O   0  0  0  0  0  0  0  0  0  0  0  0
   10.0330  -17.1930  -25.4090 O   0  0  0  0  0  0  0  0  0  0  0  0
    8.5200  -16.9850  -23.0280 O   0  0  0  0  0  0  0  0  0  0  0  0
    6.3029  -17.7001  -18.2991 H   0  0  0  0  0  0  0  0  0  0  0  0
    6.1038  -19.3320  -17.7196 H   0  0  0  0  0  0  0  0  0  0  0  0
    6.6305  -20.2023  -19.9404 H   0  0  0  0  0  0  0  0  0  0  0  0
    7.1327  -17.3590  -20.7465 H   0  0  0  0  0  0  0  0  0  0  0  0
    4.9719  -19.2552  -21.6315 H   0  0  0  0  0  0  0  0  0  0  0  0
    4.6927  -16.7893  -19.9626 H   0  0  0  0  0  0  0  0  0  0  0  0
    2.7612  -17.0680  -21.3481 H   0  0  0  0  0  0  0  0  0  0  0  0
    2.3534  -17.4587  -19.6985 H   0  0  0  0  0  0  0  0  0  0  0  0
    7.4843  -21.5021  -19.8385 H   0  0  0  0  0  0  0  0  0  0  0  0
    8.5586  -22.2778  -18.6996 H   0  0  0  0  0  0  0  0  0  0  0  0
    9.0625  -22.0446  -20.3564 H   0  0  0  0  0  0  0  0  0  0  0  0
    8.6950  -18.3095  -19.0011 H   0  0  0  0  0  0  0  0  0  0  0  0
    3.0358  -19.3454  -21.7377 H   0  0  0  0  0  0  0  0  0  0  0  0
    3.4777  -18.2697  -23.1620 H   0  0  0  0  0  0  0  0  0  0  0  0
    4.9603  -16.3127  -24.9619 H   0  0  0  0  0  0  0  0  0  0  0  0
    2.2851  -17.6494  -25.2409 H   0  0  0  0  0  0  0  0  0  0  0  0
    3.3224  -18.7780  -27.1262 H   0  0  0  0  0  0  0  0  0  0  0  0
    3.5529  -19.9875  -25.1753 H   0  0  0  0  0  0  0  0  0  0  0  0
    6.3598  -20.3752  -25.5744 H   0  0  0  0  0  0  0  0  0  0  0  0
    5.5578  -20.1768  -27.1134 H   0  0  0  0  0  0  0  0  0  0  0  0
    2.5830  -16.0279  -23.4033 H   0  0  0  0  0  0  0  0  0  0  0  0
    5.6933  -17.3566  -26.2945 H   0  0  0  0  0  0  0  0  0  0  0  0
    6.9363  -23.0430  -24.9904 H   0  0  0  0  0  0  0  0  0  0  0  0
    5.0224  -24.2755  -25.2694 H   0  0  0  0  0  0  0  0  0  0  0  0
    6.2993  -21.9325  -28.1785 H   0  0  0  0  0  0  0  0  0  0  0  0
    1.6825  -14.3399  -28.1655 H   0  0  0  0  0  0  0  0  0  0  0  0
    2.5169  -13.7948  -26.7103 H   0  0  0  0  0  0  0  0  0  0  0  0
   -0.4548  -13.8041  -27.1330 H   0  0  0  0  0  0  0  0  0  0  0  0
    1.1600  -12.8794  -24.7621 H   0  0  0  0  0  0  0  0  0  0  0  0
   -0.8848  -15.0216  -25.0943 H   0  0  0  0  0  0  0  0  0  0  0  0
   -0.8874  -14.3473  -22.8309 H   0  0  0  0  0  0  0  0  0  0  0  0
    0.8450  -16.7714  -22.9492 H   0  0  0  0  0  0  0  0  0  0  0  0
   -1.3644  -16.1855  -21.0077 H   0  0  0  0  0  0  0  0  0  0  0  0
    0.3290  -15.9482  -20.6680 H   0  0  0  0  0  0  0  0  0  0  0  0
   -2.8274  -11.0368  -24.3865 H   0  0  0  0  0  0  0  0  0  0  0  0
   -1.9394   -9.5369  -24.5077 H   0  0  0  0  0  0  0  0  0  0  0  0
   -2.1173  -10.3240  -22.9579 H   0  0  0  0  0  0  0  0  0  0  0  0
   -1.7554  -12.7466  -25.1127 H   0  0  0  0  0  0  0  0  0  0  0  0
   -0.8296  -16.4164  -25.9775 H   0  0  0  0  0  0  0  0  0  0  0  0
    1.4951  -11.7100  -26.8849 H   0  0  0  0  0  0  0  0  0  0  0  0
    1.9630  -14.8009  -22.9619 H   0  0  0  0  0  0  0  0  0  0  0  0
   -2.0274  -16.4758  -23.1904 H   0  0  0  0  0  0  0  0  0  0  0  0
   -0.8851  -18.4240  -21.4369 H   0  0  0  0  0  0  0  0  0  0  0  0
    9.3110  -18.1189  -21.4862 H   0  0  0  0  0  0  0  0  0  0  0  0
   10.5759  -18.7616  -23.4125 H   0  0  0  0  0  0  0  0  0  0  0  0
    8.0553  -19.7702  -24.6677 H   0  0  0  0  0  0  0  0  0  0  0  0
    8.2920  -17.9400  -26.2621 H   0  0  0  0  0  0  0  0  0  0  0  0
    6.9439  -17.5850  -24.3091 H   0  0  0  0  0  0  0  0  0  0  0  0
    8.4882  -15.0910  -24.8838 H   0  0  0  0  0  0  0  0  0  0  0  0
    6.9108  -15.1748  -24.1370 H   0  0  0  0  0  0  0  0  0  0  0  0
    7.1210  -15.6869  -25.7943 H   0  0  0  0  0  0  0  0  0  0  0  0
    8.7292  -20.8633  -22.7084 H   0  0  0  0  0  0  0  0  0  0  0  0
   10.7407  -19.4858  -25.6490 H   0  0  0  0  0  0  0  0  0  0  0  0
   10.4410  -17.1341  -24.5309 H   0  0  0  0  0  0  0  0  0  0  0  0
  1  2  1  0  0  0  0
  1 12  1  0  0  0  0
  1 60  1  0  0  0  0
  1 61  1  0  0  0  0
  2  3  1  0  0  0  0
  2  9  1  0  0  0  0
  2 62  1  6  0  0  0
  3  4  1  0  0  0  0
  3 10  1  0  0  0  0
  3 63  1  1  0  0  0
  4  5  1  0  0  0  0
  4 11  1  0  0  0  0
  4 64  1  6  0  0  0
  5  6  1  0  0  0  0
  5 12  1  0  0  0  0
  5 65  1  1  0  0  0
  6 13  1  0  0  0  0
  6 66  1  0  0  0  0
  6 67  1  0  0  0  0
  7  8  1  0  0  0  0
  7  9  1  0  0  0  0
  7 14  2  0  0  0  0
  8 68  1  0  0  0  0
  8 69  1  0  0  0  0
  8 70  1  0  0  0  0
  9 71  1  0  0  0  0
 10 50  1  0  0  0  0
 11 15  1  0  0  0  0
 13 72  1  0  0  0  0
 15 16  1  0  0  0  0
 15 23  1  0  0  0  0
 15 73  1  1  0  0  0
 16 17  1  0  0  0  0
 16 21  1  0  0  0  0
 16 74  1  6  0  0  0
 17 18  1  0  0  0  0
 17 29  1  0  0  0  0
 17 75  1  1  0  0  0
 18 19  1  0  0  0  0
 18 22  1  0  0  0  0
 18 76  1  6  0  0  0
 19 20  1  0  0  0  0
 19 23  1  0  0  0  0
 19 77  1  1  0  0  0
 20 24  1  0  0  0  0
 20 78  1  0  0  0  0
 20 79  1  0  0  0  0
 21 80  1  0  0  0  0
 22 81  1  0  0  0  0
 24 25  1  0  0  0  0
 25 26  1  0  0  0  0
 25 27  1  0  0  0  0
 25 28  1  0  0  0  0
 26 82  1  0  0  0  0
 27 83  1  0  0  0  0
 28 84  1  0  0  0  0
 30 31  1  0  0  0  0
 30 42  2  0  0  0  0
 30 43  1  0  0  0  0
 31 29  1  6  0  0  0
 31 32  1  0  0  0  0
 31 45  1  0  0  0  0
 32 33  1  0  0  0  0
 32 85  1  0  0  0  0
 32 86  1  0  0  0  0
 33 34  1  0  0  0  0
 33 44  1  0  0  0  0
 33 87  1  6  0  0  0
 34 35  1  0  0  0  0
 34 41  1  0  0  0  0
 34 88  1  1  0  0  0
 35 36  1  0  0  0  0
 35 45  1  0  0  0  0
 35 89  1  6  0  0  0
 36 37  1  0  0  0  0
 36 46  1  0  0  0  0
 36 90  1  1  0  0  0
 37 38  1  0  0  0  0
 37 47  1  0  0  0  0
 37 91  1  6  0  0  0
 38 48  1  0  0  0  0
 38 92  1  0  0  0  0
 38 93  1  0  0  0  0
 39 40  1  0  0  0  0
 39 41  1  0  0  0  0
 39 49  2  0  0  0  0
 40 94  1  0  0  0  0
 40 95  1  0  0  0  0
 40 96  1  0  0  0  0
 41 97  1  0  0  0  0
 43 98  1  0  0  0  0
 44 99  1  0  0  0  0
 46100  1  0  0  0  0
 47101  1  0  0  0  0
 48102  1  0  0  0  0
 50 51  1  0  0  0  0
 50 59  1  0  0  0  0
 50103  1  1  0  0  0
 51 52  1  0  0  0  0
 51 56  1  0  0  0  0
 51104  1  6  0  0  0
 52 53  1  0  0  0  0
 52 57  1  0  0  0  0
 52105  1  1  0  0  0
 53 54  1  0  0  0  0
 53 58  1  0  0  0  0
 53106  1  6  0  0  0
 54 55  1  0  0  0  0
 54 59  1  0  0  0  0
 54107  1  1  0  0  0
 55108  1  0  0  0  0
 55109  1  0  0  0  0
 55110  1  0  0  0  0
 56111  1  0  0  0  0
 57112  1  0  0  0  0
 58113  1  0  0  0  0
M  END
$$$$
