docking_inputs/siglec9/bridge_sources/5BNO_6SLN.pdb
 OpenBabel08242614273D

 88 90  0  0  1  0  0  0  0  0999 V2000
  -51.3220  -38.7730  132.6760 C   0  0  2  0  0  0  0  0  0  0  0  0
  -50.3330  -38.1650  131.6580 C   0  0  1  0  0  0  0  0  0  0  0  0
  -48.9170  -38.6620  131.9900 C   0  0  2  0  0  0  0  0  0  0  0  0
  -48.5650  -38.2210  133.4270 C   0  0  1  0  0  0  0  0  0  0  0  0
  -49.6070  -38.8360  134.3920 C   0  0  1  0  0  0  0  0  0  0  0  0
  -49.2990  -38.4150  135.8350 C   0  0  0  0  0  0  0  0  0  0  0  0
  -51.3120  -37.7490  129.3400 C   0  0  0  0  0  0  0  0  0  0  0  0
  -51.6490  -36.2890  129.7320 C   0  0  0  0  0  0  0  0  0  0  0  0
  -50.7080  -38.5600  130.2700 N   0  0  0  0  0  0  0  0  0  0  0  0
  -52.6560  -38.3120  132.3970 O   0  0  0  0  0  0  0  0  0  0  0  0
  -47.9830  -38.1160  131.0470 O   0  0  0  0  0  0  0  0  0  0  0  0
  -47.2400  -38.6890  133.8050 O   0  0  0  0  0  0  0  0  0  0  0  0
  -50.9540  -38.3910  134.0380 O   0  0  0  0  0  0  0  0  0  0  0  0
  -50.2700  -38.9960  136.7110 O   0  0  0  0  0  0  0  0  0  0  0  0
  -51.5900  -38.1440  128.2060 O   0  0  0  0  0  0  0  0  0  0  0  0
  -46.2410  -37.6310  133.8490 C   0  0  1  0  0  0  0  0  0  0  0  0
  -44.9020  -38.2240  134.3020 C   0  0  1  0  0  0  0  0  0  0  0  0
  -43.8430  -37.1070  134.3410 C   0  0  2  0  0  0  0  0  0  0  0  0
  -43.7070  -36.4950  132.9440 C   0  0  2  0  0  0  0  0  0  0  0  0
  -45.0840  -35.9440  132.5050 C   0  0  1  0  0  0  0  0  0  0  0  0
  -45.0080  -35.3500  131.0840 C   0  0  0  0  0  0  0  0  0  0  0  0
  -45.0560  -38.8230  135.6000 O   0  0  0  0  0  0  0  0  0  0  0  0
  -42.5770  -37.6370  134.7700 O   0  0  0  0  0  0  0  0  0  0  0  0
  -43.2310  -37.4900  132.0190 O   0  0  0  0  0  0  0  0  0  0  0  0
  -46.0880  -37.0110  132.5270 O   0  0  0  0  0  0  0  0  0  0  0  0
  -43.8460  -34.4960  130.8960 O   0  0  0  0  0  0  0  0  0  0  0  0
  -45.0400  -32.9940  129.3310 C   0  0  0  0  0  0  0  0  0  0  0  0
  -44.1630  -33.0980  130.6330 C   0  0  2  0  0  0  0  0  0  0  0  0
  -42.8190  -32.3420  130.4520 C   0  0  0  0  0  0  0  0  0  0  0  0
  -43.0160  -30.8160  130.5050 C   0  0  1  0  0  0  0  0  0  0  0  0
  -43.6910  -30.4170  131.8300 C   0  0  2  0  0  0  0  0  0  0  0  0
  -45.0480  -31.1490  131.9220 C   0  0  2  0  0  0  0  0  0  0  0  0
  -45.7920  -30.8210  133.2440 C   0  0  1  0  0  0  0  0  0  0  0  0
  -47.0690  -31.6840  133.3730 C   0  0  1  0  0  0  0  0  0  0  0  0
  -47.8040  -31.3470  134.6790 C   0  0  0  0  0  0  0  0  0  0  0  0
  -43.5720  -28.1740  132.9590 C   0  0  0  0  0  0  0  0  0  0  0  0
  -43.8690  -26.6820  132.7830 C   0  0  0  0  0  0  0  0  0  0  0  0
  -43.8900  -28.9410  131.8870 N   0  0  0  0  0  0  0  0  0  0  0  0
  -46.2330  -32.6060  129.4420 O   0  0  0  0  0  0  0  0  0  0  0  0
  -44.4900  -33.3210  128.2550 O   0  0  0  0  0  0  0  0  0  0  0  0
  -41.7420  -30.1700  130.3560 O   0  0  0  0  0  0  0  0  0  0  0  0
  -44.8580  -32.5890  131.8330 O   0  0  0  0  0  0  0  0  0  0  0  0
  -44.9330  -31.0620  134.3740 O   0  0  0  0  0  0  0  0  0  0  0  0
  -47.9420  -31.4630  132.2560 O   0  0  0  0  0  0  0  0  0  0  0  0
  -48.5190  -32.4990  135.1370 O   0  0  0  0  0  0  0  0  0  0  0  0
  -43.0850  -28.5970  134.0100 O   0  0  0  0  0  0  0  0  0  0  0  0
  -51.2838  -39.8389  132.5901 H   0  0  0  0  0  0  0  0  0  0  0  0
  -50.3648  -37.0972  131.7184 H   0  0  0  0  0  0  0  0  0  0  0  0
  -48.8712  -39.7292  131.9277 H   0  0  0  0  0  0  0  0  0  0  0  0
  -48.5748  -37.1522  133.4776 H   0  0  0  0  0  0  0  0  0  0  0  0
  -49.5554  -39.9016  134.3103 H   0  0  0  0  0  0  0  0  0  0  0  0
  -49.3389  -37.3486  135.9131 H   0  0  0  0  0  0  0  0  0  0  0  0
  -48.3208  -38.7525  136.1074 H   0  0  0  0  0  0  0  0  0  0  0  0
  -51.3443  -36.1115  130.7422 H   0  0  0  0  0  0  0  0  0  0  0  0
  -52.7036  -36.1306  129.6445 H   0  0  0  0  0  0  0  0  0  0  0  0
  -51.1320  -35.6163  129.0801 H   0  0  0  0  0  0  0  0  0  0  0  0
  -50.5049  -39.4835  129.9958 H   0  0  0  0  0  0  0  0  0  0  0  0
  -52.6872  -37.3457  132.4757 H   0  0  0  0  0  0  0  0  0  0  0  0
  -48.0102  -37.1473  131.0889 H   0  0  0  0  0  0  0  0  0  0  0  0
  -51.1555  -38.6883  136.4617 H   0  0  0  0  0  0  0  0  0  0  0  0
  -46.5583  -36.8785  134.5404 H   0  0  0  0  0  0  0  0  0  0  0  0
  -44.5839  -38.9799  133.6147 H   0  0  0  0  0  0  0  0  0  0  0  0
  -44.1488  -36.3527  135.0355 H   0  0  0  0  0  0  0  0  0  0  0  0
  -42.9990  -35.6929  132.9593 H   0  0  0  0  0  0  0  0  0  0  0  0
  -45.3645  -35.1729  133.1917 H   0  0  0  0  0  0  0  0  0  0  0  0
  -45.8906  -34.7716  130.9067 H   0  0  0  0  0  0  0  0  0  0  0  0
  -44.9255  -36.1653  130.3960 H   0  0  0  0  0  0  0  0  0  0  0  0
  -45.3446  -38.1489  136.2350 H   0  0  0  0  0  0  0  0  0  0  0  0
  -42.2866  -38.3232  134.1489 H   0  0  0  0  0  0  0  0  0  0  0  0
  -43.8583  -38.2292  131.9881 H   0  0  0  0  0  0  0  0  0  0  0  0
  -42.3974  -32.6051  129.5044 H   0  0  0  0  0  0  0  0  0  0  0  0
  -42.1662  -32.6233  131.2518 H   0  0  0  0  0  0  0  0  0  0  0  0
  -43.6544  -30.5035  129.7052 H   0  0  0  0  0  0  0  0  0  0  0  0
  -43.0700  -30.6955  132.6557 H   0  0  0  0  0  0  0  0  0  0  0  0
  -45.6430  -30.8072  131.1009 H   0  0  0  0  0  0  0  0  0  0  0  0
  -46.0682  -29.7874  133.2258 H   0  0  0  0  0  0  0  0  0  0  0  0
  -46.7800  -32.7142  133.3859 H   0  0  0  0  0  0  0  0  0  0  0  0
  -48.4923  -30.5466  134.5042 H   0  0  0  0  0  0  0  0  0  0  0  0
  -47.0927  -31.0511  135.4216 H   0  0  0  0  0  0  0  0  0  0  0  0
  -44.2853  -26.5133  131.8118 H   0  0  0  0  0  0  0  0  0  0  0  0
  -42.9620  -26.1234  132.8842 H   0  0  0  0  0  0  0  0  0  0  0  0
  -44.5672  -26.3668  133.5300 H   0  0  0  0  0  0  0  0  0  0  0  0
  -44.2759  -28.4958  131.0982 H   0  0  0  0  0  0  0  0  0  0  0  0
  -43.5956  -33.6003  128.2520 H   0  0  0  0  0  0  0  0  0  0  0  0
  -41.1535  -30.4456  131.0762 H   0  0  0  0  0  0  0  0  0  0  0  0
  -44.6802  -31.9983  134.3941 H   0  0  0  0  0  0  0  0  0  0  0  0
  -48.2104  -30.5311  132.2348 H   0  0  0  0  0  0  0  0  0  0  0  0
  -49.1641  -32.7678  134.4643 H   0  0  0  0  0  0  0  0  0  0  0  0
  1  2  1  0  0  0  0
  1 10  1  0  0  0  0
  1 13  1  0  0  0  0
  1 47  1  6  0  0  0
  2  3  1  0  0  0  0
  2  9  1  0  0  0  0
  2 48  1  1  0  0  0
  3  4  1  0  0  0  0
  3 11  1  0  0  0  0
  3 49  1  6  0  0  0
  4  5  1  0  0  0  0
  4 12  1  0  0  0  0
  4 50  1  1  0  0  0
  5  6  1  0  0  0  0
  5 13  1  0  0  0  0
  5 51  1  6  0  0  0
  6 14  1  0  0  0  0
  6 52  1  0  0  0  0
  6 53  1  0  0  0  0
  7  8  1  0  0  0  0
  7  9  1  0  0  0  0
  7 15  2  0  0  0  0
  8 54  1  0  0  0  0
  8 55  1  0  0  0  0
  8 56  1  0  0  0  0
  9 57  1  0  0  0  0
 10 58  1  0  0  0  0
 11 59  1  0  0  0  0
 12 16  1  0  0  0  0
 14 60  1  0  0  0  0
 16 17  1  0  0  0  0
 16 25  1  0  0  0  0
 16 61  1  1  0  0  0
 17 18  1  0  0  0  0
 17 22  1  0  0  0  0
 17 62  1  6  0  0  0
 18 19  1  0  0  0  0
 18 23  1  0  0  0  0
 18 63  1  1  0  0  0
 19 20  1  0  0  0  0
 19 24  1  0  0  0  0
 19 64  1  1  0  0  0
 20 21  1  0  0  0  0
 20 25  1  0  0  0  0
 20 65  1  1  0  0  0
 21 26  1  0  0  0  0
 21 66  1  0  0  0  0
 21 67  1  0  0  0  0
 22 68  1  0  0  0  0
 23 69  1  0  0  0  0
 24 70  1  0  0  0  0
 27 28  1  0  0  0  0
 27 39  2  0  0  0  0
 27 40  1  0  0  0  0
 28 26  1  1  0  0  0
 28 29  1  0  0  0  0
 28 42  1  0  0  0  0
 29 30  1  0  0  0  0
 29 71  1  0  0  0  0
 29 72  1  0  0  0  0
 30 31  1  0  0  0  0
 30 41  1  0  0  0  0
 30 73  1  6  0  0  0
 31 32  1  0  0  0  0
 31 38  1  0  0  0  0
 31 74  1  1  0  0  0
 32 33  1  0  0  0  0
 32 42  1  0  0  0  0
 32 75  1  6  0  0  0
 33 34  1  0  0  0  0
 33 43  1  0  0  0  0
 33 76  1  6  0  0  0
 34 35  1  0  0  0  0
 34 44  1  0  0  0  0
 34 77  1  1  0  0  0
 35 45  1  0  0  0  0
 35 78  1  0  0  0  0
 35 79  1  0  0  0  0
 36 37  1  0  0  0  0
 36 38  1  0  0  0  0
 36 46  2  0  0  0  0
 37 80  1  0  0  0  0
 37 81  1  0  0  0  0
 37 82  1  0  0  0  0
 38 83  1  0  0  0  0
 40 84  1  0  0  0  0
 41 85  1  0  0  0  0
 43 86  1  0  0  0  0
 44 87  1  0  0  0  0
 45 88  1  0  0  0  0
M  END
$$$$
