BTCNeu5Ac
 OpenBabel08272611153D

118123  0  0  1  0  0  0  0  0999 V2000
    4.5228   -6.6662   -2.3357 C   0  0  1  0  0  0  0  0  0  0  0  0
    5.3424   -5.4277   -1.8839 C   0  0  1  0  0  0  0  0  0  0  0  0
    5.5300   -4.4187   -3.0348 C   0  0  2  0  0  0  0  0  0  0  0  0
    4.2107   -4.1003   -3.7672 C   0  0  1  0  0  0  0  0  0  0  0  0
    3.2733   -5.3283   -3.8315 C   0  0  1  0  0  0  0  0  0  0  0  0
    2.5781   -5.4226   -5.1978 C   0  0  0  0  0  0  0  0  0  0  0  0
    3.5385   -5.5868   -6.2418 O   0  0  0  0  0  0  0  0  0  0  0  0
    3.9842   -6.5541   -3.6434 O   0  0  0  0  0  0  0  0  0  0  0  0
    3.4476   -3.0503   -3.1558 O   0  0  0  0  0  0  0  0  0  0  0  0
    4.0010   -1.7279   -3.2015 C   0  0  1  0  0  0  0  0  0  0  0  0
    4.3141   -1.2349   -4.6423 C   0  0  1  0  0  0  0  0  0  0  0  0
    4.0427    0.2664   -4.8075 C   0  0  2  0  0  0  0  0  0  0  0  0
    4.3212    1.0503   -3.5171 C   0  0  2  0  0  0  0  0  0  0  0  0
    3.6408    0.4218   -2.2721 C   0  0  1  0  0  0  0  0  0  0  0  0
    2.5703    1.3313   -1.6560 C   0  0  0  0  0  0  0  0  0  0  0  0
    2.1055    0.7839   -0.4124 O   0  0  0  0  0  0  0  0  0  0  0  0
    1.1261    1.5983    0.2235 C   0  0  2  0  0  0  0  0  0  0  0  0
    1.6245    3.0530    0.5535 C   0  0  0  0  0  0  0  0  0  0  0  0
    2.5902    3.3333    1.2502 O   0  0  0  0  0  0  0  0  0  0  0  0
    0.8479    4.0040   -0.0381 O   0  0  0  0  0  0  0  0  0  0  0  0
    0.7574    0.9755    1.5761 C   0  0  0  0  0  0  0  0  0  0  0  0
    0.1009   -0.3930    1.4345 C   0  0  1  0  0  0  0  0  0  0  0  0
   -0.6916   -0.5283    0.1141 C   0  0  2  0  0  0  0  0  0  0  0  0
   -1.1313    0.8644   -0.3947 C   0  0  2  0  0  0  0  0  0  0  0  0
   -1.9320    0.7930   -1.7227 C   0  0  1  0  0  0  0  0  0  0  0  0
   -2.3098    2.1884   -2.2608 C   0  0  1  0  0  0  0  0  0  0  0  0
   -3.1905    2.1031   -3.5147 C   0  0  0  0  0  0  0  0  0  0  0  0
   -3.5340    3.4353   -3.9164 O   0  0  0  0  0  0  0  0  0  0  0  0
   -3.0040    2.9382   -1.2560 O   0  0  0  0  0  0  0  0  0  0  0  0
   -1.1880    0.0909   -2.7294 O   0  0  0  0  0  0  0  0  0  0  0  0
   -0.0143    1.7386   -0.6420 O   0  0  0  0  0  0  0  0  0  0  0  0
   -1.8017   -1.4685    0.2300 N   0  0  0  0  0  0  0  0  0  0  0  0
   -2.8383   -1.3564    1.0998 C   0  0  0  0  0  0  0  0  0  0  0  0
   -2.9664   -0.4770    1.9403 O   0  0  0  0  0  0  0  0  0  0  0  0
   -3.6723   -2.3959    0.9174 O   0  0  0  0  0  0  0  0  0  0  0  0
   -4.5087   -2.7358    2.0391 C   0  0  0  0  0  0  0  0  0  0  0  0
   -3.8204   -3.7567    2.8752 C   0  0  0  0  0  0  0  0  0  0  0  0
   -3.3792   -3.6754    4.2058 C   0  0  0  0  0  0  0  0  0  0  0  0
   -2.6292   -4.7390    4.5118 N   0  0  0  0  0  0  0  0  0  0  0  0
   -2.6285   -5.4251    3.3356 N   0  0  0  0  0  0  0  0  0  0  0  0
   -3.4004   -4.9129    2.3414 N   0  0  0  0  0  0  0  0  0  0  0  0
   -1.6577   -6.5171    3.0896 C   0  0  0  0  0  0  0  0  0  0  0  0
   -2.3959   -7.8367    2.8481 C   0  0  0  0  0  0  0  0  0  0  0  0
   -3.1341   -8.0692    1.6714 C   0  0  0  0  0  0  0  0  0  0  0  0
   -3.7249   -9.3120    1.4338 C   0  0  0  0  0  0  0  0  0  0  0  0
   -3.5910  -10.3373    2.3672 C   0  0  0  0  0  0  0  0  0  0  0  0
   -2.8748  -10.1182    3.5424 C   0  0  0  0  0  0  0  0  0  0  0  0
   -2.2823   -8.8774    3.7837 C   0  0  0  0  0  0  0  0  0  0  0  0
   -0.6091   -6.1934    2.0094 C   0  0  0  0  0  0  0  0  0  0  0  0
   -0.3463   -4.8832    1.5761 C   0  0  0  0  0  0  0  0  0  0  0  0
    0.5310   -4.6393    0.5201 C   0  0  0  0  0  0  0  0  0  0  0  0
    1.1914   -5.6936   -0.0949 C   0  0  0  0  0  0  0  0  0  0  0  0
    1.0240   -6.9884    0.3759 C   0  0  0  0  0  0  0  0  0  0  0  0
    0.1475   -7.2334    1.4319 C   0  0  0  0  0  0  0  0  0  0  0  0
    1.0853   -1.4331    1.5072 O   0  0  0  0  0  0  0  0  0  0  0  0
    3.0499   -0.8578   -2.5812 O   0  0  0  0  0  0  0  0  0  0  0  0
    3.9212    2.4114   -3.7325 O   0  0  0  0  0  0  0  0  0  0  0  0
    2.6819    0.5293   -5.2060 O   0  0  0  0  0  0  0  0  0  0  0  0
    5.7055   -1.4467   -4.9442 O   0  0  0  0  0  0  0  0  0  0  0  0
    6.4701   -4.8957   -4.0094 O   0  0  0  0  0  0  0  0  0  0  0  0
    4.7630   -4.7706   -0.7003 N   0  0  0  0  0  0  0  0  0  0  0  0
    5.5378   -3.9633    0.1068 C   0  0  0  0  0  0  0  0  0  0  0  0
    6.7256   -3.7599   -0.0898 O   0  0  0  0  0  0  0  0  0  0  0  0
    4.7720   -3.3153    1.2303 C   0  0  0  0  0  0  0  0  0  0  0  0
    5.3540   -7.8167   -2.3353 O   0  0  0  0  0  0  0  0  0  0  0  0
    3.7080   -6.8696   -1.6325 H   0  0  0  0  0  0  0  0  0  0  0  0
    6.3345   -5.7789   -1.5700 H   0  0  0  0  0  0  0  0  0  0  0  0
    5.9768   -3.5036   -2.6406 H   0  0  0  0  0  0  0  0  0  0  0  0
    4.4430   -3.8074   -4.7934 H   0  0  0  0  0  0  0  0  0  0  0  0
    2.4859   -5.2549   -3.0728 H   0  0  0  0  0  0  0  0  0  0  0  0
    1.9154   -6.2938   -5.2300 H   0  0  0  0  0  0  0  0  0  0  0  0
    1.9911   -4.5241   -5.4107 H   0  0  0  0  0  0  0  0  0  0  0  0
    4.1607   -6.2755   -5.9324 H   0  0  0  0  0  0  0  0  0  0  0  0
    4.9088   -1.7275   -2.5881 H   0  0  0  0  0  0  0  0  0  0  0  0
    3.7216   -1.7908   -5.3800 H   0  0  0  0  0  0  0  0  0  0  0  0
    4.6654    0.6826   -5.6098 H   0  0  0  0  0  0  0  0  0  0  0  0
    5.4035    1.0656   -3.3388 H   0  0  0  0  0  0  0  0  0  0  0  0
    4.4050    0.2361   -1.5052 H   0  0  0  0  0  0  0  0  0  0  0  0
    1.7263    1.4180   -2.3500 H   0  0  0  0  0  0  0  0  0  0  0  0
    2.9960    2.3211   -1.4664 H   0  0  0  0  0  0  0  0  0  0  0  0
    0.1332    3.5573   -0.5494 H   0  0  0  0  0  0  0  0  0  0  0  0
    1.6437    0.9048    2.2182 H   0  0  0  0  0  0  0  0  0  0  0  0
    0.0434    1.6407    2.0797 H   0  0  0  0  0  0  0  0  0  0  0  0
   -0.5421   -0.5482    2.3066 H   0  0  0  0  0  0  0  0  0  0  0  0
   -0.0172   -0.9808   -0.6231 H   0  0  0  0  0  0  0  0  0  0  0  0
   -1.7522    1.3530    0.3636 H   0  0  0  0  0  0  0  0  0  0  0  0
   -2.8512    0.2257   -1.5398 H   0  0  0  0  0  0  0  0  0  0  0  0
   -1.4116    2.7634   -2.5190 H   0  0  0  0  0  0  0  0  0  0  0  0
   -2.6887    1.5980   -4.3465 H   0  0  0  0  0  0  0  0  0  0  0  0
   -4.1302    1.5867   -3.2946 H   0  0  0  0  0  0  0  0  0  0  0  0
   -2.8136    3.7563   -4.4882 H   0  0  0  0  0  0  0  0  0  0  0  0
   -3.5365    3.6023   -1.7424 H   0  0  0  0  0  0  0  0  0  0  0  0
   -0.2550    0.3712   -2.6673 H   0  0  0  0  0  0  0  0  0  0  0  0
   -1.7847   -2.3189   -0.3180 H   0  0  0  0  0  0  0  0  0  0  0  0
   -5.4352   -3.1595    1.6369 H   0  0  0  0  0  0  0  0  0  0  0  0
   -4.7907   -1.8522    2.6229 H   0  0  0  0  0  0  0  0  0  0  0  0
   -3.5227   -2.8866    4.9308 H   0  0  0  0  0  0  0  0  0  0  0  0
   -1.0886   -6.5979    4.0265 H   0  0  0  0  0  0  0  0  0  0  0  0
   -3.2366   -7.2867    0.9190 H   0  0  0  0  0  0  0  0  0  0  0  0
   -4.2818   -9.4818    0.5153 H   0  0  0  0  0  0  0  0  0  0  0  0
   -4.0454  -11.3070    2.1790 H   0  0  0  0  0  0  0  0  0  0  0  0
   -2.7694  -10.9193    4.2697 H   0  0  0  0  0  0  0  0  0  0  0  0
   -1.7132   -8.7363    4.7004 H   0  0  0  0  0  0  0  0  0  0  0  0
   -0.8433   -4.0239    2.0202 H   0  0  0  0  0  0  0  0  0  0  0  0
    0.6762   -3.6233    0.1624 H   0  0  0  0  0  0  0  0  0  0  0  0
    1.8241   -5.5038   -0.9496 H   0  0  0  0  0  0  0  0  0  0  0  0
    1.5469   -7.8157   -0.0951 H   0  0  0  0  0  0  0  0  0  0  0  0
    0.0264   -8.2621    1.7679 H   0  0  0  0  0  0  0  0  0  0  0  0
    1.4778   -1.4063    2.3971 H   0  0  0  0  0  0  0  0  0  0  0  0
    3.1533    2.3623   -4.3395 H   0  0  0  0  0  0  0  0  0  0  0  0
    2.5486    0.0905   -6.0675 H   0  0  0  0  0  0  0  0  0  0  0  0
    5.8597   -2.3929   -5.1219 H   0  0  0  0  0  0  0  0  0  0  0  0
    7.2666   -5.1936   -3.5300 H   0  0  0  0  0  0  0  0  0  0  0  0
    3.7651   -4.6029   -0.6676 H   0  0  0  0  0  0  0  0  0  0  0  0
    3.9320   -3.9429    1.5420 H   0  0  0  0  0  0  0  0  0  0  0  0
    4.3985   -2.3419    0.9015 H   0  0  0  0  0  0  0  0  0  0  0  0
    5.4379   -3.1873    2.0885 H   0  0  0  0  0  0  0  0  0  0  0  0
    4.7795   -8.5324   -2.6540 H   0  0  0  0  0  0  0  0  0  0  0  0
  1  2  1  0  0  0  0
  1  8  1  0  0  0  0
  1 65  1  0  0  0  0
  1 66  1  1  0  0  0
  2  3  1  0  0  0  0
  2 61  1  0  0  0  0
  2 67  1  1  0  0  0
  3  4  1  0  0  0  0
  3 60  1  0  0  0  0
  3 68  1  1  0  0  0
  4  5  1  0  0  0  0
  4  9  1  0  0  0  0
  4 69  1  6  0  0  0
  5  6  1  0  0  0  0
  5  8  1  0  0  0  0
  5 70  1  1  0  0  0
  6  7  1  0  0  0  0
  6 71  1  0  0  0  0
  6 72  1  0  0  0  0
  7 73  1  0  0  0  0
  9 10  1  0  0  0  0
 10 11  1  0  0  0  0
 10 56  1  0  0  0  0
 10 74  1  1  0  0  0
 11 12  1  0  0  0  0
 11 59  1  0  0  0  0
 11 75  1  6  0  0  0
 12 13  1  0  0  0  0
 12 58  1  0  0  0  0
 12 76  1  6  0  0  0
 13 14  1  0  0  0  0
 13 57  1  0  0  0  0
 13 77  1  1  0  0  0
 14 15  1  0  0  0  0
 14 56  1  0  0  0  0
 14 78  1  1  0  0  0
 15 16  1  0  0  0  0
 15 79  1  0  0  0  0
 15 80  1  0  0  0  0
 17 16  1  6  0  0  0
 17 18  1  0  0  0  0
 17 21  1  0  0  0  0
 17 31  1  0  0  0  0
 18 19  2  0  0  0  0
 18 20  1  0  0  0  0
 20 81  1  0  0  0  0
 21 22  1  0  0  0  0
 21 82  1  0  0  0  0
 21 83  1  0  0  0  0
 22 23  1  0  0  0  0
 22 55  1  0  0  0  0
 22 84  1  1  0  0  0
 23 24  1  0  0  0  0
 23 32  1  0  0  0  0
 23 85  1  6  0  0  0
 24 25  1  0  0  0  0
 24 31  1  0  0  0  0
 24 86  1  1  0  0  0
 25 26  1  0  0  0  0
 25 30  1  0  0  0  0
 25 87  1  1  0  0  0
 26 27  1  0  0  0  0
 26 29  1  0  0  0  0
 26 88  1  6  0  0  0
 27 28  1  0  0  0  0
 27 89  1  0  0  0  0
 27 90  1  0  0  0  0
 28 91  1  0  0  0  0
 29 92  1  0  0  0  0
 30 93  1  0  0  0  0
 32 33  1  0  0  0  0
 32 94  1  0  0  0  0
 33 34  2  0  0  0  0
 33 35  1  0  0  0  0
 35 36  1  0  0  0  0
 36 37  1  0  0  0  0
 36 95  1  0  0  0  0
 36 96  1  0  0  0  0
 37 38  1  0  0  0  0
 37 41  2  0  0  0  0
 38 39  2  0  0  0  0
 38 97  1  0  0  0  0
 39 40  1  0  0  0  0
 40 41  1  0  0  0  0
 40 42  1  0  0  0  0
 42 43  1  0  0  0  0
 42 49  1  0  0  0  0
 42 98  1  0  0  0  0
 43 44  1  0  0  0  0
 43 48  2  0  0  0  0
 44 45  2  0  0  0  0
 44 99  1  0  0  0  0
 45 46  1  0  0  0  0
 45100  1  0  0  0  0
 46 47  2  0  0  0  0
 46101  1  0  0  0  0
 47 48  1  0  0  0  0
 47102  1  0  0  0  0
 48103  1  0  0  0  0
 49 50  1  0  0  0  0
 49 54  2  0  0  0  0
 50 51  2  0  0  0  0
 50104  1  0  0  0  0
 51 52  1  0  0  0  0
 51105  1  0  0  0  0
 52 53  2  0  0  0  0
 52106  1  0  0  0  0
 53 54  1  0  0  0  0
 53107  1  0  0  0  0
 54108  1  0  0  0  0
 55109  1  0  0  0  0
 57110  1  0  0  0  0
 58111  1  0  0  0  0
 59112  1  0  0  0  0
 60113  1  0  0  0  0
 61 62  1  0  0  0  0
 61114  1  0  0  0  0
 62 63  2  0  0  0  0
 62 64  1  0  0  0  0
 64115  1  0  0  0  0
 64116  1  0  0  0  0
 64117  1  0  0  0  0
 65118  1  0  0  0  0
M  END
$$$$
