MTTSNeu5Ac
 OpenBabel08272611153D

108112  0  0  1  0  0  0  0  0999 V2000
    2.0768   -6.3594   -5.0415 C   0  0  1  0  0  0  0  0  0  0  0  0
    0.7541   -5.6086   -5.3422 C   0  0  1  0  0  0  0  0  0  0  0  0
    0.9898   -4.0988   -5.4390 C   0  0  2  0  0  0  0  0  0  0  0  0
    1.7993   -3.5873   -4.2425 C   0  0  1  0  0  0  0  0  0  0  0  0
    3.1226   -4.3664   -4.1040 C   0  0  1  0  0  0  0  0  0  0  0  0
    3.4013   -4.7442   -2.6360 C   0  0  0  0  0  0  0  0  0  0  0  0
    4.7292   -5.2485   -2.5044 O   0  0  0  0  0  0  0  0  0  0  0  0
    3.2090   -5.5069   -4.9713 O   0  0  0  0  0  0  0  0  0  0  0  0
    1.9894   -2.1741   -4.4934 O   0  0  0  0  0  0  0  0  0  0  0  0
    2.5627   -1.4363   -3.4107 C   0  0  1  0  0  0  0  0  0  0  0  0
    2.5888    0.0547   -3.8284 C   0  0  1  0  0  0  0  0  0  0  0  0
    2.3854    0.9783   -2.6144 C   0  0  2  0  0  0  0  0  0  0  0  0
    3.0135    0.3863   -1.3425 C   0  0  2  0  0  0  0  0  0  0  0  0
    2.5171   -1.0576   -1.0785 C   0  0  1  0  0  0  0  0  0  0  0  0
    1.6162   -1.2162    0.1549 C   0  0  0  0  0  0  0  0  0  0  0  0
    1.3587   -2.6199    0.3276 O   0  0  0  0  0  0  0  0  0  0  0  0
    0.6217   -2.9743    1.5225 C   0  0  2  0  0  0  0  0  0  0  0  0
    1.5934   -2.8025    2.7664 C   0  0  0  0  0  0  0  0  0  0  0  0
    2.7953   -2.5751    2.6674 O   0  0  0  0  0  0  0  0  0  0  0  0
    1.0393   -2.9252    3.9925 O   0  0  0  0  0  0  0  0  0  0  0  0
    0.3496   -4.4681    1.2968 C   0  0  0  0  0  0  0  0  0  0  0  0
   -0.8121   -5.0058    2.1094 C   0  0  1  0  0  0  0  0  0  0  0  0
   -2.0637   -4.1360    1.8883 C   0  0  2  0  0  0  0  0  0  0  0  0
   -1.7215   -2.6655    2.2222 C   0  0  2  0  0  0  0  0  0  0  0  0
   -2.8841   -1.7138    1.8544 C   0  0  1  0  0  0  0  0  0  0  0  0
   -2.7610   -0.2857    2.4443 C   0  0  1  0  0  0  0  0  0  0  0  0
   -1.4655    0.4520    2.0712 C   0  0  0  0  0  0  0  0  0  0  0  0
   -1.4773    1.8169    2.6415 N   0  0  0  0  0  0  0  0  0  0  0  0
   -0.0624    2.7122    2.4168 S   0  0  0  0  0  0  0  0  0  0  0  0
   -0.3226    4.0582    2.8659 O   0  0  0  0  0  0  0  0  0  0  0  0
    0.4176    2.4221    1.0783 O   0  0  0  0  0  0  0  0  0  0  0  0
    1.1879    2.0577    3.5020 C   0  0  0  0  0  0  0  0  0  0  0  0
    2.4945    1.6765    3.2798 C   0  0  0  0  0  0  0  0  0  0  0  0
    3.1223    1.1773    4.4582 C   0  0  0  0  0  0  0  0  0  0  0  0
    2.2909    1.2058    5.5649 C   0  0  0  0  0  0  0  0  0  0  0  0
    0.7387    1.8134    5.1333 S   0  0  0  0  0  0  0  0  0  0  0  0
    2.5952    0.8218    6.9271 C   0  0  0  0  0  0  0  0  0  0  0  0
    1.8615    1.1937    7.9586 N   0  0  0  0  0  0  0  0  0  0  0  0
    2.4200    0.7414    9.1446 C   0  0  0  0  0  0  0  0  0  0  0  0
    3.5723   -0.0037    8.9910 C   0  0  0  0  0  0  0  0  0  0  0  0
    3.9722   -0.1350    7.3321 S   0  0  0  0  0  0  0  0  0  0  0  0
    1.7677    1.0956   10.4323 C   0  0  0  0  0  0  0  0  0  0  0  0
   -3.8786    0.4910    1.9659 O   0  0  0  0  0  0  0  0  0  0  0  0
   -3.0120   -1.6110    0.4227 O   0  0  0  0  0  0  0  0  0  0  0  0
   -0.5797   -2.2181    1.4880 O   0  0  0  0  0  0  0  0  0  0  0  0
   -3.2173   -4.6653    2.6225 N   0  0  0  0  0  0  0  0  0  0  0  0
   -3.2800   -4.7187    3.9939 C   0  0  0  0  0  0  0  0  0  0  0  0
   -2.3677   -4.3122    4.7066 O   0  0  0  0  0  0  0  0  0  0  0  0
   -4.5600   -5.3021    4.5249 C   0  0  0  0  0  0  0  0  0  0  0  0
   -1.0653   -6.3454    1.6791 O   0  0  0  0  0  0  0  0  0  0  0  0
    1.7922   -1.5778   -2.2233 O   0  0  0  0  0  0  0  0  0  0  0  0
    2.7851    1.2423   -0.2226 O   0  0  0  0  0  0  0  0  0  0  0  0
    0.9819    1.1917   -2.3677 O   0  0  0  0  0  0  0  0  0  0  0  0
    3.8367    0.3507   -4.4681 O   0  0  0  0  0  0  0  0  0  0  0  0
   -0.2873   -3.4218   -5.4602 O   0  0  0  0  0  0  0  0  0  0  0  0
    0.0245   -6.0931   -6.5307 N   0  0  0  0  0  0  0  0  0  0  0  0
    0.5970   -6.1056   -7.7824 C   0  0  0  0  0  0  0  0  0  0  0  0
    1.7908   -5.9190   -7.9859 O   0  0  0  0  0  0  0  0  0  0  0  0
   -0.3699   -6.4143   -8.8918 C   0  0  0  0  0  0  0  0  0  0  0  0
    1.9500   -7.0956   -3.8294 O   0  0  0  0  0  0  0  0  0  0  0  0
    2.2793   -7.1020   -5.8209 H   0  0  0  0  0  0  0  0  0  0  0  0
    0.0458   -5.8026   -4.5254 H   0  0  0  0  0  0  0  0  0  0  0  0
    1.4914   -3.8278   -6.3760 H   0  0  0  0  0  0  0  0  0  0  0  0
    1.1811   -3.6848   -3.3410 H   0  0  0  0  0  0  0  0  0  0  0  0
    3.9533   -3.7293   -4.4315 H   0  0  0  0  0  0  0  0  0  0  0  0
    3.3233   -3.8704   -1.9862 H   0  0  0  0  0  0  0  0  0  0  0  0
    2.7103   -5.5014   -2.2608 H   0  0  0  0  0  0  0  0  0  0  0  0
    4.8318   -5.5487   -1.5852 H   0  0  0  0  0  0  0  0  0  0  0  0
    3.5863   -1.7976   -3.2500 H   0  0  0  0  0  0  0  0  0  0  0  0
    1.7988    0.2542   -4.5635 H   0  0  0  0  0  0  0  0  0  0  0  0
    2.8135    1.9701   -2.8050 H   0  0  0  0  0  0  0  0  0  0  0  0
    4.1005    0.3458   -1.4879 H   0  0  0  0  0  0  0  0  0  0  0  0
    3.3902   -1.7084   -0.9346 H   0  0  0  0  0  0  0  0  0  0  0  0
    0.6635   -0.7034   -0.0152 H   0  0  0  0  0  0  0  0  0  0  0  0
    2.1047   -0.8091    1.0433 H   0  0  0  0  0  0  0  0  0  0  0  0
    0.1020   -3.1650    4.0865 H   0  0  0  0  0  0  0  0  0  0  0  0
    0.1230   -4.6386    0.2333 H   0  0  0  0  0  0  0  0  0  0  0  0
    1.2525   -5.0648    1.4847 H   0  0  0  0  0  0  0  0  0  0  0  0
   -0.5328   -5.0579    3.1661 H   0  0  0  0  0  0  0  0  0  0  0  0
   -2.3402   -4.2135    0.8285 H   0  0  0  0  0  0  0  0  0  0  0  0
   -1.5279   -2.5370    3.2876 H   0  0  0  0  0  0  0  0  0  0  0  0
   -3.8345   -2.1254    2.2118 H   0  0  0  0  0  0  0  0  0  0  0  0
   -2.8522   -0.3342    3.5361 H   0  0  0  0  0  0  0  0  0  0  0  0
   -0.6011   -0.0775    2.4782 H   0  0  0  0  0  0  0  0  0  0  0  0
   -1.3894    0.5259    0.9804 H   0  0  0  0  0  0  0  0  0  0  0  0
   -2.3080    2.3557    2.3753 H   0  0  0  0  0  0  0  0  0  0  0  0
    2.9789    1.7613    2.3139 H   0  0  0  0  0  0  0  0  0  0  0  0
    4.1486    0.8294    4.4763 H   0  0  0  0  0  0  0  0  0  0  0  0
    4.1855   -0.4590    9.7558 H   0  0  0  0  0  0  0  0  0  0  0  0
    2.3314    1.8861   10.9384 H   0  0  0  0  0  0  0  0  0  0  0  0
    0.7464    1.4540   10.2711 H   0  0  0  0  0  0  0  0  0  0  0  0
    1.7210    0.2267   11.0969 H   0  0  0  0  0  0  0  0  0  0  0  0
   -4.0377    0.1956    1.0462 H   0  0  0  0  0  0  0  0  0  0  0  0
   -2.1069   -1.6136    0.0505 H   0  0  0  0  0  0  0  0  0  0  0  0
   -4.0129   -4.9905    2.0818 H   0  0  0  0  0  0  0  0  0  0  0  0
   -4.5022   -5.3980    5.6123 H   0  0  0  0  0  0  0  0  0  0  0  0
   -5.3984   -4.6488    4.2698 H   0  0  0  0  0  0  0  0  0  0  0  0
   -4.7232   -6.2942    4.0953 H   0  0  0  0  0  0  0  0  0  0  0  0
   -1.7782   -6.6986    2.2407 H   0  0  0  0  0  0  0  0  0  0  0  0
    1.9269    1.7025   -0.3672 H   0  0  0  0  0  0  0  0  0  0  0  0
    0.5420    0.3208   -2.3536 H   0  0  0  0  0  0  0  0  0  0  0  0
    3.8637   -0.1722   -5.2916 H   0  0  0  0  0  0  0  0  0  0  0  0
   -0.0653   -2.4715   -5.4119 H   0  0  0  0  0  0  0  0  0  0  0  0
   -0.9794   -5.9677   -6.4944 H   0  0  0  0  0  0  0  0  0  0  0  0
   -1.3193   -5.8975   -8.7297 H   0  0  0  0  0  0  0  0  0  0  0  0
   -0.5398   -7.4926   -8.9383 H   0  0  0  0  0  0  0  0  0  0  0  0
    0.0453   -6.0699   -9.8436 H   0  0  0  0  0  0  0  0  0  0  0  0
    2.7079   -7.7071   -3.8453 H   0  0  0  0  0  0  0  0  0  0  0  0
  1  2  1  0  0  0  0
  1  8  1  0  0  0  0
  1 60  1  0  0  0  0
  1 61  1  6  0  0  0
  2  3  1  0  0  0  0
  2 56  1  0  0  0  0
  2 62  1  1  0  0  0
  3  4  1  0  0  0  0
  3 55  1  0  0  0  0
  3 63  1  6  0  0  0
  4  5  1  0  0  0  0
  4  9  1  0  0  0  0
  4 64  1  1  0  0  0
  5  6  1  0  0  0  0
  5  8  1  0  0  0  0
  5 65  1  6  0  0  0
  6  7  1  0  0  0  0
  6 66  1  0  0  0  0
  6 67  1  0  0  0  0
  7 68  1  0  0  0  0
  9 10  1  0  0  0  0
 10 11  1  0  0  0  0
 10 51  1  0  0  0  0
 10 69  1  1  0  0  0
 11 12  1  0  0  0  0
 11 54  1  0  0  0  0
 11 70  1  6  0  0  0
 12 13  1  0  0  0  0
 12 53  1  0  0  0  0
 12 71  1  6  0  0  0
 13 14  1  0  0  0  0
 13 52  1  0  0  0  0
 13 72  1  6  0  0  0
 14 15  1  0  0  0  0
 14 51  1  0  0  0  0
 14 73  1  1  0  0  0
 15 16  1  0  0  0  0
 15 74  1  0  0  0  0
 15 75  1  0  0  0  0
 17 16  1  6  0  0  0
 17 18  1  0  0  0  0
 17 21  1  0  0  0  0
 17 45  1  0  0  0  0
 18 19  2  0  0  0  0
 18 20  1  0  0  0  0
 20 76  1  0  0  0  0
 21 22  1  0  0  0  0
 21 77  1  0  0  0  0
 21 78  1  0  0  0  0
 22 23  1  0  0  0  0
 22 50  1  0  0  0  0
 22 79  1  1  0  0  0
 23 24  1  0  0  0  0
 23 46  1  0  0  0  0
 23 80  1  6  0  0  0
 24 25  1  0  0  0  0
 24 45  1  0  0  0  0
 24 81  1  1  0  0  0
 25 26  1  0  0  0  0
 25 44  1  0  0  0  0
 25 82  1  1  0  0  0
 26 27  1  0  0  0  0
 26 43  1  0  0  0  0
 26 83  1  1  0  0  0
 27 28  1  0  0  0  0
 27 84  1  0  0  0  0
 27 85  1  0  0  0  0
 28 29  1  0  0  0  0
 28 86  1  0  0  0  0
 29 30  2  0  0  0  0
 29 31  2  0  0  0  0
 29 32  1  0  0  0  0
 32 33  2  0  0  0  0
 32 36  1  0  0  0  0
 33 34  1  0  0  0  0
 33 87  1  0  0  0  0
 34 35  2  0  0  0  0
 34 88  1  0  0  0  0
 35 36  1  0  0  0  0
 35 37  1  0  0  0  0
 37 38  2  0  0  0  0
 37 41  1  0  0  0  0
 38 39  1  0  0  0  0
 39 40  2  0  0  0  0
 39 42  1  0  0  0  0
 40 41  1  0  0  0  0
 40 89  1  0  0  0  0
 42 90  1  0  0  0  0
 42 91  1  0  0  0  0
 42 92  1  0  0  0  0
 43 93  1  0  0  0  0
 44 94  1  0  0  0  0
 46 47  1  0  0  0  0
 46 95  1  0  0  0  0
 47 48  2  0  0  0  0
 47 49  1  0  0  0  0
 49 96  1  0  0  0  0
 49 97  1  0  0  0  0
 49 98  1  0  0  0  0
 50 99  1  0  0  0  0
 52100  1  0  0  0  0
 53101  1  0  0  0  0
 54102  1  0  0  0  0
 55103  1  0  0  0  0
 56 57  1  0  0  0  0
 56104  1  0  0  0  0
 57 58  2  0  0  0  0
 57 59  1  0  0  0  0
 59105  1  0  0  0  0
 59106  1  0  0  0  0
 59107  1  0  0  0  0
 60108  1  0  0  0  0
M  END
$$$$
