docking_inputs/siglec9/bridge_sources/5AJC_sLeX.pdb
 OpenBabel08242614273D

108111  0  0  1  0  0  0  0  0999 V2000
   45.6330   66.1520   14.5160 C   0  0  2  0  0  0  0  0  0  0  0  0
   44.5860   65.2540   13.8360 C   0  0  1  0  0  0  0  0  0  0  0  0
   43.6990   66.0840   12.9330 C   0  0  2  0  0  0  0  0  0  0  0  0
   43.0730   67.2240   13.8320 C   0  0  1  0  0  0  0  0  0  0  0  0
   44.1440   68.0560   14.5530 C   0  0  1  0  0  0  0  0  0  0  0  0
   43.4750   68.9550   15.5780 C   0  0  0  0  0  0  0  0  0  0  0  0
   45.5780   63.0630   13.7090 C   0  0  0  0  0  0  0  0  0  0  0  0
   46.3710   62.0660   12.9430 C   0  0  0  0  0  0  0  0  0  0  0  0
   45.0310   67.2070   15.2890 O   0  0  0  0  0  0  0  0  0  0  0  0
   42.6860   65.3330   12.2640 O   0  0  0  0  0  0  0  0  0  0  0  0
   42.1330   67.9730   13.0880 O   0  0  0  0  0  0  0  0  0  0  0  0
   44.3060   70.1090   15.7340 O   0  0  0  0  0  0  0  0  0  0  0  0
   45.2500   62.7820   14.8690 O   0  0  0  0  0  0  0  0  0  0  0  0
   45.3090   64.2250   13.0940 N   0  0  0  0  0  0  0  0  0  0  0  0
   46.4450   66.7380   13.5400 O   0  0  0  0  0  0  0  0  0  0  0  0
   42.6320   68.9540   12.1140 C   0  0  1  0  0  0  0  0  0  0  0  0
   41.6450   69.0540   11.0040 C   0  0  1  0  0  0  0  0  0  0  0  0
   41.8770   70.2620   10.0730 C   0  0  2  0  0  0  0  0  0  0  0  0
   42.1690   71.5140   10.8960 C   0  0  2  0  0  0  0  0  0  0  0  0
   43.2630   71.2310   11.9140 C   0  0  1  0  0  0  0  0  0  0  0  0
   43.5830   72.4650   12.7290 C   0  0  0  0  0  0  0  0  0  0  0  0
   41.6400   67.8510   10.2120 O   0  0  0  0  0  0  0  0  0  0  0  0
   40.7290   70.4760    9.2580 O   0  0  0  0  0  0  0  0  0  0  0  0
   40.9460   71.9660   11.4830 O   0  0  0  0  0  0  0  0  0  0  0  0
   42.8450   70.1710   12.8200 O   0  0  0  0  0  0  0  0  0  0  0  0
   44.4910   72.1450   13.7900 O   0  0  0  0  0  0  0  0  0  0  0  0
   41.8280   71.4770    7.2980 C   0  0  0  0  0  0  0  0  0  0  0  0
   40.9260   70.3440    7.7820 C   0  0  2  0  0  0  0  0  0  0  0  0
   39.5410   70.4460    7.1260 C   0  0  0  0  0  0  0  0  0  0  0  0
   39.5360   69.9140    5.6950 C   0  0  1  0  0  0  0  0  0  0  0  0
   40.2440   68.5660    5.5780 C   0  0  2  0  0  0  0  0  0  0  0  0
   41.6430   68.7360    6.1020 C   0  0  2  0  0  0  0  0  0  0  0  0
   42.5490   67.5040    6.0690 C   0  0  1  0  0  0  0  0  0  0  0  0
   43.8430   67.7310    6.8120 C   0  0  1  0  0  0  0  0  0  0  0  0
   44.8220   66.5880    6.5730 C   0  0  0  0  0  0  0  0  0  0  0  0
   40.0740   66.8550    3.8240 C   0  0  0  0  0  0  0  0  0  0  0  0
   40.0060   66.5960    2.3540 C   0  0  0  0  0  0  0  0  0  0  0  0
   40.1560   68.1490    4.1640 N   0  0  0  0  0  0  0  0  0  0  0  0
   41.3490   72.6360    7.3200 O   0  0  0  0  0  0  0  0  0  0  0  0
   43.0380   71.2390    6.9920 O   0  0  0  0  0  0  0  0  0  0  0  0
   38.1920   69.8410    5.2760 O   0  0  0  0  0  0  0  0  0  0  0  0
   41.5600   69.0850    7.5060 O   0  0  0  0  0  0  0  0  0  0  0  0
   41.8490   66.4620    6.7560 O   0  0  0  0  0  0  0  0  0  0  0  0
   44.4610   68.9790    6.4210 O   0  0  0  0  0  0  0  0  0  0  0  0
   45.9710   66.8560    7.4170 O   0  0  0  0  0  0  0  0  0  0  0  0
   40.1120   65.9730    4.6430 O   0  0  0  0  0  0  0  0  0  0  0  0
   41.7660   64.5670   13.0440 C   0  0  1  0  0  0  0  0  0  0  0  0
   40.3830   64.5920   12.4590 C   0  0  2  0  0  0  0  0  0  0  0  0
   40.3250   63.8100   11.1660 C   0  0  1  0  0  0  0  0  0  0  0  0
   40.8130   62.3990   11.4350 C   0  0  1  0  0  0  0  0  0  0  0  0
   42.2260   62.4520   12.0010 C   0  0  2  0  0  0  0  0  0  0  0  0
   42.7720   61.0370   12.2120 C   0  0  0  0  0  0  0  0  0  0  0  0
   39.9500   65.9100   12.1690 O   0  0  0  0  0  0  0  0  0  0  0  0
   38.9970   63.8290   10.6250 O   0  0  0  0  0  0  0  0  0  0  0  0
   39.9580   61.7440   12.3560 O   0  0  0  0  0  0  0  0  0  0  0  0
   42.2000   63.2110   13.1900 O   0  0  0  0  0  0  0  0  0  0  0  0
   46.2004   65.5302   15.1765 H   0  0  0  0  0  0  0  0  0  0  0  0
   43.9450   64.7894   14.5559 H   0  0  0  0  0  0  0  0  0  0  0  0
   44.2916   66.4871   12.1385 H   0  0  0  0  0  0  0  0  0  0  0  0
   42.5244   66.7749   14.6334 H   0  0  0  0  0  0  0  0  0  0  0  0
   44.6773   68.6146   13.8124 H   0  0  0  0  0  0  0  0  0  0  0  0
   43.3823   68.4409   16.5118 H   0  0  0  0  0  0  0  0  0  0  0  0
   42.4935   69.2341   15.2559 H   0  0  0  0  0  0  0  0  0  0  0  0
   46.5156   61.1902   13.5405 H   0  0  0  0  0  0  0  0  0  0  0  0
   47.3220   62.4856   12.6892 H   0  0  0  0  0  0  0  0  0  0  0  0
   45.8462   61.8045   12.0479 H   0  0  0  0  0  0  0  0  0  0  0  0
   45.1893   69.8343   16.0259 H   0  0  0  0  0  0  0  0  0  0  0  0
   45.5926   64.3801   12.1641 H   0  0  0  0  0  0  0  0  0  0  0  0
   45.9024   67.2937   12.9590 H   0  0  0  0  0  0  0  0  0  0  0  0
   43.5619   68.6760   11.6634 H   0  0  0  0  0  0  0  0  0  0  0  0
   40.6975   69.1936   11.4811 H   0  0  0  0  0  0  0  0  0  0  0  0
   42.7189   70.0558    9.4456 H   0  0  0  0  0  0  0  0  0  0  0  0
   42.5432   72.3031   10.2778 H   0  0  0  0  0  0  0  0  0  0  0  0
   44.1364   70.9305   11.3738 H   0  0  0  0  0  0  0  0  0  0  0  0
   42.6784   72.8559   13.1458 H   0  0  0  0  0  0  0  0  0  0  0  0
   44.0398   73.1921   12.0906 H   0  0  0  0  0  0  0  0  0  0  0  0
   42.5050   67.7399    9.7873 H   0  0  0  0  0  0  0  0  0  0  0  0
   40.5827   71.2685   12.0508 H   0  0  0  0  0  0  0  0  0  0  0  0
   44.0855   71.4859   14.3748 H   0  0  0  0  0  0  0  0  0  0  0  0
   39.2419   71.4732    7.1121 H   0  0  0  0  0  0  0  0  0  0  0  0
   38.8630   69.8488    7.6992 H   0  0  0  0  0  0  0  0  0  0  0  0
   40.0854   70.5759    5.0586 H   0  0  0  0  0  0  0  0  0  0  0  0
   39.7988   67.7862    6.1599 H   0  0  0  0  0  0  0  0  0  0  0  0
   42.0717   69.4707    5.4528 H   0  0  0  0  0  0  0  0  0  0  0  0
   42.7787   67.2707    5.0503 H   0  0  0  0  0  0  0  0  0  0  0  0
   43.6024   67.7737    7.8537 H   0  0  0  0  0  0  0  0  0  0  0  0
   45.1157   66.5602    5.5445 H   0  0  0  0  0  0  0  0  0  0  0  0
   44.3803   65.6414    6.8048 H   0  0  0  0  0  0  0  0  0  0  0  0
   39.9816   67.5277    1.8284 H   0  0  0  0  0  0  0  0  0  0  0  0
   39.1211   66.0373    2.1308 H   0  0  0  0  0  0  0  0  0  0  0  0
   40.8666   66.0375    2.0501 H   0  0  0  0  0  0  0  0  0  0  0  0
   40.1576   68.8346    3.4575 H   0  0  0  0  0  0  0  0  0  0  0  0
   43.3555   70.3575    6.9880 H   0  0  0  0  0  0  0  0  0  0  0  0
   37.7037   69.2390    5.8592 H   0  0  0  0  0  0  0  0  0  0  0  0
   41.6734   66.7380    7.6692 H   0  0  0  0  0  0  0  0  0  0  0  0
   44.6824   68.9484    5.4771 H   0  0  0  0  0  0  0  0  0  0  0  0
   46.3491   67.7184    7.1842 H   0  0  0  0  0  0  0  0  0  0  0  0
   41.7356   65.0248   14.0106 H   0  0  0  0  0  0  0  0  0  0  0  0
   39.7459   64.1545   13.1990 H   0  0  0  0  0  0  0  0  0  0  0  0
   40.9601   64.2585   10.4309 H   0  0  0  0  0  0  0  0  0  0  0  0
   40.8100   61.8516   10.5157 H   0  0  0  0  0  0  0  0  0  0  0  0
   42.8926   62.9279   11.3125 H   0  0  0  0  0  0  0  0  0  0  0  0
   42.1411   60.5097   12.8967 H   0  0  0  0  0  0  0  0  0  0  0  0
   43.7632   61.0930   12.6111 H   0  0  0  0  0  0  0  0  0  0  0  0
   42.7933   60.5196   11.2757 H   0  0  0  0  0  0  0  0  0  0  0  0
   40.5312   66.3010   11.4980 H   0  0  0  0  0  0  0  0  0  0  0  0
   38.3830   63.4298   11.2610 H   0  0  0  0  0  0  0  0  0  0  0  0
   39.9521   62.2314   13.1947 H   0  0  0  0  0  0  0  0  0  0  0  0
  1  2  1  0  0  0  0
  1  9  1  0  0  0  0
  1 15  1  0  0  0  0
  1 57  1  1  0  0  0
  2  3  1  0  0  0  0
  2 14  1  0  0  0  0
  2 58  1  1  0  0  0
  3  4  1  0  0  0  0
  3 10  1  0  0  0  0
  3 59  1  6  0  0  0
  4  5  1  0  0  0  0
  4 11  1  0  0  0  0
  4 60  1  1  0  0  0
  5  6  1  0  0  0  0
  5  9  1  0  0  0  0
  5 61  1  6  0  0  0
  6 12  1  0  0  0  0
  6 62  1  0  0  0  0
  6 63  1  0  0  0  0
  7  8  1  0  0  0  0
  7 13  2  0  0  0  0
  7 14  1  0  0  0  0
  8 64  1  0  0  0  0
  8 65  1  0  0  0  0
  8 66  1  0  0  0  0
 10 47  1  0  0  0  0
 11 16  1  0  0  0  0
 12 67  1  0  0  0  0
 14 68  1  0  0  0  0
 15 69  1  0  0  0  0
 16 17  1  0  0  0  0
 16 25  1  0  0  0  0
 16 70  1  6  0  0  0
 17 18  1  0  0  0  0
 17 22  1  0  0  0  0
 17 71  1  1  0  0  0
 18 19  1  0  0  0  0
 18 23  1  0  0  0  0
 18 72  1  6  0  0  0
 19 20  1  0  0  0  0
 19 24  1  0  0  0  0
 19 73  1  6  0  0  0
 20 21  1  0  0  0  0
 20 25  1  0  0  0  0
 20 74  1  6  0  0  0
 21 26  1  0  0  0  0
 21 75  1  0  0  0  0
 21 76  1  0  0  0  0
 22 77  1  0  0  0  0
 24 78  1  0  0  0  0
 26 79  1  0  0  0  0
 27 28  1  0  0  0  0
 27 39  2  0  0  0  0
 27 40  1  0  0  0  0
 28 23  1  1  0  0  0
 28 29  1  0  0  0  0
 28 42  1  0  0  0  0
 29 30  1  0  0  0  0
 29 80  1  0  0  0  0
 29 81  1  0  0  0  0
 30 31  1  0  0  0  0
 30 41  1  0  0  0  0
 30 82  1  6  0  0  0
 31 32  1  0  0  0  0
 31 38  1  0  0  0  0
 31 83  1  1  0  0  0
 32 33  1  0  0  0  0
 32 42  1  0  0  0  0
 32 84  1  6  0  0  0
 33 34  1  0  0  0  0
 33 43  1  0  0  0  0
 33 85  1  6  0  0  0
 34 35  1  0  0  0  0
 34 44  1  0  0  0  0
 34 86  1  1  0  0  0
 35 45  1  0  0  0  0
 35 87  1  0  0  0  0
 35 88  1  0  0  0  0
 36 37  1  0  0  0  0
 36 38  1  0  0  0  0
 36 46  2  0  0  0  0
 37 89  1  0  0  0  0
 37 90  1  0  0  0  0
 37 91  1  0  0  0  0
 38 92  1  0  0  0  0
 40 93  1  0  0  0  0
 41 94  1  0  0  0  0
 43 95  1  0  0  0  0
 44 96  1  0  0  0  0
 45 97  1  0  0  0  0
 47 48  1  0  0  0  0
 47 56  1  0  0  0  0
 47 98  1  1  0  0  0
 48 49  1  0  0  0  0
 48 53  1  0  0  0  0
 48 99  1  1  0  0  0
 49 50  1  0  0  0  0
 49 54  1  0  0  0  0
 49100  1  6  0  0  0
 50 51  1  0  0  0  0
 50 55  1  0  0  0  0
 50101  1  6  0  0  0
 51 52  1  0  0  0  0
 51 56  1  0  0  0  0
 51102  1  6  0  0  0
 52103  1  0  0  0  0
 52104  1  0  0  0  0
 52105  1  0  0  0  0
 53106  1  0  0  0  0
 54107  1  0  0  0  0
 55108  1  0  0  0  0
M  END
$$$$
