LIT25-RL-C9_protomer_1


 23 26  0  0  0  0  0  0  0  0999 V2000
   -1.4820   97.8634   52.5395 N   0  0  0  0  0  0  0  0  0  0  0  0
   -0.5779   96.8108   52.5207 C   0  0  0  0  0  0  0  0  0  0  0  0
   -1.0094   95.6424   52.0250 N   0  0  0  0  0  0  0  0  0  0  0  0
   -0.1571   94.6009   52.0069 C   0  0  0  0  0  0  0  0  0  0  0  0
    1.1174   94.5802   52.4402 N   0  0  0  0  0  0  0  0  0  0  0  0
    1.5299   95.7677   52.9284 C   0  0  0  0  0  0  0  0  0  0  0  0
    0.7337   96.9070   53.0049 C   0  0  0  0  0  0  0  0  0  0  0  0
    1.5153   97.9295   53.5886 C   0  0  0  0  0  0  0  0  0  0  0  0
    2.7537   97.3968   53.8612 C   0  0  0  0  0  0  0  0  0  0  0  0
    2.7908   96.0685   53.4561 N   0  0  0  0  0  0  0  0  0  0  0  0
   -2.4252   97.5195   52.3924 H   0  0  0  0  0  0  0  0  0  0  0  0
   -1.3595   98.5226   53.2950 H   0  0  0  0  0  0  0  0  0  0  0  0
    3.9322   95.2043   53.5749 C   0  0  0  0  0  0  0  0  0  0  0  0
    3.8920   94.0415   54.3484 C   0  0  0  0  0  0  0  0  0  0  0  0
    5.0268   93.2460   54.4212 C   0  0  0  0  0  0  0  0  0  0  0  0
    6.1835   93.5225   53.7879 N   0  0  0  0  0  0  0  0  0  0  0  0
    6.2066   94.6457   53.0457 C   0  0  0  0  0  0  0  0  0  0  0  0
    5.1260   95.5056   52.9068 C   0  0  0  0  0  0  0  0  0  0  0  0
   -0.6555   93.3387   51.4718 C   0  0  0  0  0  0  0  0  0  0  0  0
   -0.0385   92.1937   50.9988 C   0  0  0  0  0  0  0  0  0  0  0  0
   -1.0676   91.3010   50.6128 C   0  0  0  0  0  0  0  0  0  0  0  0
   -2.2507   91.9499   50.8725 C   0  0  0  0  0  0  0  0  0  0  0  0
   -2.0148   93.1813   51.3926 O   0  0  0  0  0  0  0  0  0  0  0  0
  1  2  1  0
  2  3  2  0
  3  4  1  0
  4 19  1  0
 19 20  2  0
 20 21  1  0
 21 22  2  0
 22 23  1  0
  4  5  2  0
  5  6  1  0
  6  7  2  0
  7  8  1  0
  8  9  2  0
  9 10  1  0
 10 13  1  0
 13 14  2  0
 14 15  1  0
 15 16  2  0
 16 17  1  0
 17 18  2  0
  7  2  1  0
 18 13  1  0
 23 19  1  0
 10  6  1  0
  1 11  1  0
  1 12  1  0
M  END
> <CANDIDATE_ID>
LIT25-RL-C9

> <PRIMARY_PROTOMER>
true

> <PH>
7.4

> <minimizedAffinity>
-9.56083

> <CNNscore>
0.9700009823

> <CNNaffinity>
7.4294285774

> <CNN_VS>
7.2065529823

> <CNNaffinity_variance>
0.1014288440

$$$$
