LIT25-RL-C9_protomer_1


 23 26  0  0  0  0  0  0  0  0999 V2000
   -1.4905   97.8615   52.5316 N   0  0  0  0  0  0  0  0  0  0  0  0
   -0.5825   96.8120   52.5173 C   0  0  0  0  0  0  0  0  0  0  0  0
   -1.0084   95.6412   52.0228 N   0  0  0  0  0  0  0  0  0  0  0  0
   -0.1524   94.6027   52.0091 C   0  0  0  0  0  0  0  0  0  0  0  0
    1.1211   94.5875   52.4459 N   0  0  0  0  0  0  0  0  0  0  0  0
    1.5279   95.7774   52.9328 C   0  0  0  0  0  0  0  0  0  0  0  0
    0.7274   96.9140   53.0049 C   0  0  0  0  0  0  0  0  0  0  0  0
    1.5037   97.9405   53.5886 C   0  0  0  0  0  0  0  0  0  0  0  0
    2.7433   97.4128   53.8657 C   0  0  0  0  0  0  0  0  0  0  0  0
    2.7863   96.0838   53.4633 N   0  0  0  0  0  0  0  0  0  0  0  0
   -2.4320   97.5138   52.3826 H   0  0  0  0  0  0  0  0  0  0  0  0
   -1.3724   98.5225   53.2860 H   0  0  0  0  0  0  0  0  0  0  0  0
    3.9305   95.2241   53.5870 C   0  0  0  0  0  0  0  0  0  0  0  0
    3.8858   94.0514   54.3451 C   0  0  0  0  0  0  0  0  0  0  0  0
    5.0236   93.2608   54.4235 C   0  0  0  0  0  0  0  0  0  0  0  0
    6.1874   93.5511   53.8097 N   0  0  0  0  0  0  0  0  0  0  0  0
    6.2149   94.6838   53.0821 C   0  0  0  0  0  0  0  0  0  0  0  0
    5.1317   95.5398   52.9392 C   0  0  0  0  0  0  0  0  0  0  0  0
   -0.6447   93.3376   51.4752 C   0  0  0  0  0  0  0  0  0  0  0  0
   -0.0223   92.1943   51.0055 C   0  0  0  0  0  0  0  0  0  0  0  0
   -1.0471   91.2969   50.6189 C   0  0  0  0  0  0  0  0  0  0  0  0
   -2.2333   91.9416   50.8750 C   0  0  0  0  0  0  0  0  0  0  0  0
   -2.0032   93.1748   51.3934 O   0  0  0  0  0  0  0  0  0  0  0  0
  1  2  1  0
  2  3  2  0
  3  4  1  0
  4 19  1  0
 19 20  2  0
 20 21  1  0
 21 22  2  0
 22 23  1  0
  4  5  2  0
  5  6  1  0
  6  7  2  0
  7  8  1  0
  8  9  2  0
  9 10  1  0
 10 13  1  0
 13 14  2  0
 14 15  1  0
 15 16  2  0
 16 17  1  0
 17 18  2  0
  7  2  1  0
 18 13  1  0
 23 19  1  0
 10  6  1  0
  1 11  1  0
  1 12  1  0
M  END
> <CANDIDATE_ID>
LIT25-RL-C9

> <PRIMARY_PROTOMER>
true

> <PH>
7.4

> <minimizedAffinity>
-9.56988

> <CNNscore>
0.9696655869

> <CNNaffinity>
7.4292540550

> <CNN_VS>
7.2038922310

> <CNNaffinity_variance>
0.1033620015

$$$$
