LIT25-RL-C9_protomer_1


 23 26  0  0  0  0  0  0  0  0999 V2000
   -1.4785   97.8589   52.5248 N   0  0  0  0  0  0  0  0  0  0  0  0
   -0.5788   96.8024   52.5106 C   0  0  0  0  0  0  0  0  0  0  0  0
   -1.0140   95.6347   52.0165 N   0  0  0  0  0  0  0  0  0  0  0  0
   -0.1661   94.5896   52.0029 C   0  0  0  0  0  0  0  0  0  0  0  0
    1.1073   94.5645   52.4392 N   0  0  0  0  0  0  0  0  0  0  0  0
    1.5237   95.7514   52.9256 C   0  0  0  0  0  0  0  0  0  0  0  0
    0.7320   96.8943   52.9977 C   0  0  0  0  0  0  0  0  0  0  0  0
    1.5166   97.9148   53.5808 C   0  0  0  0  0  0  0  0  0  0  0  0
    2.7521   97.3775   53.8576 C   0  0  0  0  0  0  0  0  0  0  0  0
    2.7846   96.0481   53.4556 N   0  0  0  0  0  0  0  0  0  0  0  0
   -2.4228   97.5186   52.3762 H   0  0  0  0  0  0  0  0  0  0  0  0
   -1.3550   98.5192   53.2790 H   0  0  0  0  0  0  0  0  0  0  0  0
    3.9220   95.1795   53.5792 C   0  0  0  0  0  0  0  0  0  0  0  0
    3.8694   94.0091   54.3404 C   0  0  0  0  0  0  0  0  0  0  0  0
    5.0010   93.2096   54.4185 C   0  0  0  0  0  0  0  0  0  0  0  0
    6.1659   93.4890   53.8016 N   0  0  0  0  0  0  0  0  0  0  0  0
    6.2010   94.6195   53.0711 C   0  0  0  0  0  0  0  0  0  0  0  0
    5.1245   95.4839   52.9282 C   0  0  0  0  0  0  0  0  0  0  0  0
   -0.6684   93.3282   51.4695 C   0  0  0  0  0  0  0  0  0  0  0  0
   -0.0551   92.1828   50.9930 C   0  0  0  0  0  0  0  0  0  0  0  0
   -1.0871   91.2915   50.6115 C   0  0  0  0  0  0  0  0  0  0  0  0
   -2.2682   91.9417   50.8769 C   0  0  0  0  0  0  0  0  0  0  0  0
   -2.0283   93.1725   51.3965 O   0  0  0  0  0  0  0  0  0  0  0  0
  1  2  1  0
  2  3  2  0
  3  4  1  0
  4 19  1  0
 19 20  2  0
 20 21  1  0
 21 22  2  0
 22 23  1  0
  4  5  2  0
  5  6  1  0
  6  7  2  0
  7  8  1  0
  8  9  2  0
  9 10  1  0
 10 13  1  0
 13 14  2  0
 14 15  1  0
 15 16  2  0
 16 17  1  0
 17 18  2  0
  7  2  1  0
 18 13  1  0
 23 19  1  0
 10  6  1  0
  1 11  1  0
  1 12  1  0
M  END
> <CANDIDATE_ID>
LIT25-RL-C9

> <PRIMARY_PROTOMER>
true

> <PH>
7.4

> <minimizedAffinity>
-9.57456

> <CNNscore>
0.9699860215

> <CNNaffinity>
7.4346733093

> <CNN_VS>
7.2115292549

> <CNNaffinity_variance>
0.1027786508

$$$$
