LIT25-RL-C5_protomer_1


 21 23  0  0  0  0  0  0  0  0999 V2000
   -1.4700   96.5984   52.3852 N   0  0  0  0  0  0  0  0  0  0  0  0
   -0.2467   95.9652   52.4895 C   0  0  0  0  0  0  0  0  0  0  0  0
   -0.1347   94.7695   51.9245 N   0  0  0  0  0  0  0  0  0  0  0  0
    1.0740   94.1662   51.9908 C   0  0  0  0  0  0  0  0  0  0  0  0
    2.1727   94.7464   52.6423 C   0  0  0  0  0  0  0  0  0  0  0  0
    3.4547   94.1568   52.7943 C   0  0  0  0  0  0  0  0  0  0  0  0
    4.4611   94.8414   53.4589 C   0  0  0  0  0  0  0  0  0  0  0  0
    5.6700   94.2837   53.5987 F   0  0  0  0  0  0  0  0  0  0  0  0
    4.2260   96.1011   53.9825 C   0  0  0  0  0  0  0  0  0  0  0  0
    2.9603   96.6740   53.8391 C   0  0  0  0  0  0  0  0  0  0  0  0
    1.9260   96.0159   53.1811 C   0  0  0  0  0  0  0  0  0  0  0  0
    0.7408   96.6269   53.0935 N   0  0  0  0  0  0  0  0  0  0  0  0
   -1.3278   97.5973   52.3759 H   0  0  0  0  0  0  0  0  0  0  0  0
   -1.9672   96.1917   51.6030 H   0  0  0  0  0  0  0  0  0  0  0  0
    1.1370   92.8620   51.3173 C   0  0  0  0  0  0  0  0  0  0  0  0
    2.3557   92.3096   50.9100 C   0  0  0  0  0  0  0  0  0  0  0  0
    2.4046   91.0412   50.3118 C   0  0  0  0  0  0  0  0  0  0  0  0
    1.2624   90.2578   50.0762 C   0  0  0  0  0  0  0  0  0  0  0  0
    1.3198   89.1011   49.5450 O   0  0  0  0  0  0  0  0  0  0  0  0
    0.0521   90.8554   50.4698 C   0  0  0  0  0  0  0  0  0  0  0  0
   -0.0215   92.1226   51.0700 C   0  0  0  0  0  0  0  0  0  0  0  0
  1  2  1  0
  2  3  2  0
  3  4  1  0
  4 15  1  0
 15 16  2  0
 16 17  1  0
 17 18  2  0
 18 19  1  0
 18 20  1  0
 20 21  2  0
  4  5  2  0
  5  6  1  0
  6  7  2  0
  7  8  1  0
  7  9  1  0
  9 10  2  0
 10 11  1  0
 11 12  2  0
 12  2  1  0
 21 15  1  0
 11  5  1  0
  1 13  1  0
  1 14  1  0
M  CHG 1  19  -1
M  END
> <CANDIDATE_ID>
LIT25-RL-C5

> <PRIMARY_PROTOMER>
true

> <PH>
7.4

> <minimizedAffinity>
-10.04855

> <CNNscore>
0.9186192751

> <CNNaffinity>
7.0326743126

> <CNN_VS>
6.4603500366

> <CNNaffinity_variance>
0.3535017073

$$$$
