LIT25-RL-C9_protomer_1


 23 26  0  0  0  0  0  0  0  0999 V2000
   -1.1742   97.9071   52.6359 N   0  0  0  0  0  0  0  0  0  0  0  0
   -0.1323   96.9986   52.7587 C   0  0  0  0  0  0  0  0  0  0  0  0
    0.9589   97.4051   53.4227 N   0  0  0  0  0  0  0  0  0  0  0  0
    1.9897   96.5485   53.5453 C   0  0  0  0  0  0  0  0  0  0  0  0
    2.0696   95.2922   53.0678 N   0  0  0  0  0  0  0  0  0  0  0  0
    0.9584   94.9044   52.4095 C   0  0  0  0  0  0  0  0  0  0  0  0
   -0.1615   95.7078   52.2137 C   0  0  0  0  0  0  0  0  0  0  0  0
   -1.0960   94.9544   51.4680 C   0  0  0  0  0  0  0  0  0  0  0  0
   -0.5302   93.7256   51.2193 C   0  0  0  0  0  0  0  0  0  0  0  0
    0.7322   93.6669   51.7962 N   0  0  0  0  0  0  0  0  0  0  0  0
   -0.8541   98.8422   52.8654 H   0  0  0  0  0  0  0  0  0  0  0  0
   -1.7265   97.8176   51.7950 H   0  0  0  0  0  0  0  0  0  0  0  0
    1.6059   92.5276   51.7479 C   0  0  0  0  0  0  0  0  0  0  0  0
    1.8792   91.7665   52.8872 C   0  0  0  0  0  0  0  0  0  0  0  0
    2.7294   90.6753   52.7756 C   0  0  0  0  0  0  0  0  0  0  0  0
    3.3196   90.2936   51.6260 N   0  0  0  0  0  0  0  0  0  0  0  0
    3.0460   91.0361   50.5366 C   0  0  0  0  0  0  0  0  0  0  0  0
    2.2087   92.1430   50.5432 C   0  0  0  0  0  0  0  0  0  0  0  0
    3.1687   97.0198   54.2635 C   0  0  0  0  0  0  0  0  0  0  0  0
    4.3574   96.4207   54.6420 C   0  0  0  0  0  0  0  0  0  0  0  0
    5.1157   97.4039   55.3225 C   0  0  0  0  0  0  0  0  0  0  0  0
    4.3490   98.5442   55.3198 C   0  0  0  0  0  0  0  0  0  0  0  0
    3.1709   98.3250   54.6820 O   0  0  0  0  0  0  0  0  0  0  0  0
  1  2  1  0
  2  3  2  0
  3  4  1  0
  4 19  1  0
 19 20  2  0
 20 21  1  0
 21 22  2  0
 22 23  1  0
  4  5  2  0
  5  6  1  0
  6  7  2  0
  7  8  1  0
  8  9  2  0
  9 10  1  0
 10 13  1  0
 13 14  2  0
 14 15  1  0
 15 16  2  0
 16 17  1  0
 17 18  2  0
  7  2  1  0
 18 13  1  0
 23 19  1  0
 10  6  1  0
  1 11  1  0
  1 12  1  0
M  END
> <CANDIDATE_ID>
LIT25-RL-C9

> <PRIMARY_PROTOMER>
true

> <PH>
7.4

> <minimizedAffinity>
-8.83963

> <CNNscore>
0.8326333165

> <CNNaffinity>
7.4029431343

> <CNN_VS>
6.1639370918

> <CNNaffinity_variance>
0.3399300277

$$$$
