LIT25-RL-C9_protomer_1


 23 26  0  0  0  0  0  0  0  0999 V2000
   -1.1591   97.9108   52.6349 N   0  0  0  0  0  0  0  0  0  0  0  0
   -0.1220   96.9964   52.7549 C   0  0  0  0  0  0  0  0  0  0  0  0
    0.9720   97.3958   53.4186 N   0  0  0  0  0  0  0  0  0  0  0  0
    1.9984   96.5334   53.5385 C   0  0  0  0  0  0  0  0  0  0  0  0
    2.0710   95.2776   53.0586 N   0  0  0  0  0  0  0  0  0  0  0  0
    0.9570   94.8971   52.4007 C   0  0  0  0  0  0  0  0  0  0  0  0
   -0.1587   95.7069   52.2075 C   0  0  0  0  0  0  0  0  0  0  0  0
   -1.0981   94.9599   51.4613 C   0  0  0  0  0  0  0  0  0  0  0  0
   -0.5391   93.7286   51.2097 C   0  0  0  0  0  0  0  0  0  0  0  0
    0.7236   93.6619   51.7852 N   0  0  0  0  0  0  0  0  0  0  0  0
   -0.8337   98.8437   52.8658 H   0  0  0  0  0  0  0  0  0  0  0  0
   -1.7126   97.8259   51.7943 H   0  0  0  0  0  0  0  0  0  0  0  0
    1.5910   92.5180   51.7340 C   0  0  0  0  0  0  0  0  0  0  0  0
    1.8503   91.7451   52.8686 C   0  0  0  0  0  0  0  0  0  0  0  0
    2.6950   90.6500   52.7542 C   0  0  0  0  0  0  0  0  0  0  0  0
    3.2927   90.2752   51.6062 N   0  0  0  0  0  0  0  0  0  0  0  0
    3.0326   91.0291   50.5214 C   0  0  0  0  0  0  0  0  0  0  0  0
    2.2017   92.1408   50.5310 C   0  0  0  0  0  0  0  0  0  0  0  0
    3.1805   96.9969   54.2565 C   0  0  0  0  0  0  0  0  0  0  0  0
    4.3670   96.3911   54.6313 C   0  0  0  0  0  0  0  0  0  0  0  0
    5.1308   97.3687   55.3137 C   0  0  0  0  0  0  0  0  0  0  0  0
    4.3695   98.5126   55.3157 C   0  0  0  0  0  0  0  0  0  0  0  0
    3.1895   98.3009   54.6790 O   0  0  0  0  0  0  0  0  0  0  0  0
  1  2  1  0
  2  3  2  0
  3  4  1  0
  4 19  1  0
 19 20  2  0
 20 21  1  0
 21 22  2  0
 22 23  1  0
  4  5  2  0
  5  6  1  0
  6  7  2  0
  7  8  1  0
  8  9  2  0
  9 10  1  0
 10 13  1  0
 13 14  2  0
 14 15  1  0
 15 16  2  0
 16 17  1  0
 17 18  2  0
  7  2  1  0
 18 13  1  0
 23 19  1  0
 10  6  1  0
  1 11  1  0
  1 12  1  0
M  END
> <CANDIDATE_ID>
LIT25-RL-C9

> <PRIMARY_PROTOMER>
true

> <PH>
7.4

> <minimizedAffinity>
-8.83868

> <CNNscore>
0.8319522738

> <CNNaffinity>
7.4035162926

> <CNN_VS>
6.1593723297

> <CNNaffinity_variance>
0.3425917625

$$$$
