LIT25-RL-C9_protomer_1


 23 26  0  0  0  0  0  0  0  0999 V2000
   -1.1653   97.9261   52.6374 N   0  0  0  0  0  0  0  0  0  0  0  0
   -0.1291   97.0111   52.7590 C   0  0  0  0  0  0  0  0  0  0  0  0
    0.9645   97.4100   53.4239 N   0  0  0  0  0  0  0  0  0  0  0  0
    1.9900   96.5470   53.5454 C   0  0  0  0  0  0  0  0  0  0  0  0
    2.0624   95.2910   53.0661 N   0  0  0  0  0  0  0  0  0  0  0  0
    0.9490   94.9109   52.4070 C   0  0  0  0  0  0  0  0  0  0  0  0
   -0.1660   95.7214   52.2121 C   0  0  0  0  0  0  0  0  0  0  0  0
   -1.1049   94.9748   51.4650 C   0  0  0  0  0  0  0  0  0  0  0  0
   -0.5464   93.7430   51.2147 C   0  0  0  0  0  0  0  0  0  0  0  0
    0.7155   93.6757   51.7917 N   0  0  0  0  0  0  0  0  0  0  0  0
   -0.8396   98.8590   52.8683 H   0  0  0  0  0  0  0  0  0  0  0  0
   -1.7180   97.8413   51.7962 H   0  0  0  0  0  0  0  0  0  0  0  0
    1.5822   92.5312   51.7420 C   0  0  0  0  0  0  0  0  0  0  0  0
    1.8290   91.7506   52.8741 C   0  0  0  0  0  0  0  0  0  0  0  0
    2.6737   90.6554   52.7614 C   0  0  0  0  0  0  0  0  0  0  0  0
    3.2828   90.2874   51.6172 N   0  0  0  0  0  0  0  0  0  0  0  0
    3.0347   91.0486   50.5346 C   0  0  0  0  0  0  0  0  0  0  0  0
    2.2048   92.1612   50.5429 C   0  0  0  0  0  0  0  0  0  0  0  0
    3.1716   97.0101   54.2647 C   0  0  0  0  0  0  0  0  0  0  0  0
    4.3538   96.4013   54.6483 C   0  0  0  0  0  0  0  0  0  0  0  0
    5.1196   97.3801   55.3268 C   0  0  0  0  0  0  0  0  0  0  0  0
    4.3637   98.5275   55.3178 C   0  0  0  0  0  0  0  0  0  0  0  0
    3.1852   98.3169   54.6781 O   0  0  0  0  0  0  0  0  0  0  0  0
  1  2  1  0
  2  3  2  0
  3  4  1  0
  4 19  1  0
 19 20  2  0
 20 21  1  0
 21 22  2  0
 22 23  1  0
  4  5  2  0
  5  6  1  0
  6  7  2  0
  7  8  1  0
  8  9  2  0
  9 10  1  0
 10 13  1  0
 13 14  2  0
 14 15  1  0
 15 16  2  0
 16 17  1  0
 17 18  2  0
  7  2  1  0
 18 13  1  0
 23 19  1  0
 10  6  1  0
  1 11  1  0
  1 12  1  0
M  END
> <CANDIDATE_ID>
LIT25-RL-C9

> <PRIMARY_PROTOMER>
true

> <PH>
7.4

> <minimizedAffinity>
-8.84028

> <CNNscore>
0.8353707790

> <CNNaffinity>
7.4027981758

> <CNN_VS>
6.1840810776

> <CNNaffinity_variance>
0.3368217647

$$$$
