LIT25-RL-C7_protomer_1


 25 28  0  0  0  0  0  0  0  0999 V2000
   -1.7127   97.0759   52.3406 N   0  0  0  0  0  0  0  0  0  0  0  0
   -0.5607   96.3204   52.4028 C   0  0  0  0  0  0  0  0  0  0  0  0
    0.4646   96.8284   53.0628 N   0  0  0  0  0  0  0  0  0  0  0  0
    1.5649   96.0699   53.1044 C   0  0  0  0  0  0  0  0  0  0  0  0
    1.6674   94.8620   52.5443 N   0  0  0  0  0  0  0  0  0  0  0  0
    0.5604   94.4544   51.9254 C   0  0  0  0  0  0  0  0  0  0  0  0
   -0.5795   95.1328   51.8300 N   0  0  0  0  0  0  0  0  0  0  0  0
   -1.7451   97.7377   53.1036 H   0  0  0  0  0  0  0  0  0  0  0  0
   -2.5198   96.4854   52.1964 H   0  0  0  0  0  0  0  0  0  0  0  0
    2.7509   96.5984   53.8279 C   0  0  0  0  0  0  0  0  0  0  0  0
    3.9487   95.8868   53.9073 C   0  0  0  0  0  0  0  0  0  0  0  0
    5.0272   96.4310   54.6003 C   0  0  0  0  0  0  0  0  0  0  0  0
    4.8987   97.6774   55.2051 C   0  0  0  0  0  0  0  0  0  0  0  0
    3.6834   98.3428   55.0952 C   0  0  0  0  0  0  0  0  0  0  0  0
    2.6260   97.8185   54.4226 N   0  0  0  0  0  0  0  0  0  0  0  0
    3.4979   99.6202   55.6939 N   0  0  0  0  0  0  0  0  0  0  0  0
    3.0317   99.8476   56.9722 C   0  0  0  0  0  0  0  0  0  0  0  0
    3.0121  101.2114   57.1323 C   0  0  0  0  0  0  0  0  0  0  0  0
    3.4505  101.8382   55.9986 N   0  0  0  0  0  0  0  0  0  0  0  0
    3.7322  100.8657   55.1576 C   0  0  0  0  0  0  0  0  0  0  0  0
    0.6212   93.1354   51.3106 C   0  0  0  0  0  0  0  0  0  0  0  0
    1.6442   92.3866   50.7565 C   0  0  0  0  0  0  0  0  0  0  0  0
    1.0709   91.1675   50.3199 C   0  0  0  0  0  0  0  0  0  0  0  0
   -0.2652   91.2421   50.6326 C   0  0  0  0  0  0  0  0  0  0  0  0
   -0.5485   92.4263   51.2327 O   0  0  0  0  0  0  0  0  0  0  0  0
  1  2  1  0
  2  3  2  0
  3  4  1  0
  4 10  1  0
 10 11  2  0
 11 12  1  0
 12 13  2  0
 13 14  1  0
 14 16  1  0
 16 17  1  0
 17 18  2  0
 18 19  1  0
 19 20  2  0
 14 15  2  0
  4  5  2  0
  5  6  1  0
  6 21  1  0
 21 22  2  0
 22 23  1  0
 23 24  2  0
 24 25  1  0
  6  7  2  0
  7  2  1  0
 15 10  1  0
 25 21  1  0
 20 16  1  0
  1  8  1  0
  1  9  1  0
M  END
> <CANDIDATE_ID>
LIT25-RL-C7

> <PRIMARY_PROTOMER>
true

> <PH>
7.4

> <minimizedAffinity>
-9.46509

> <CNNscore>
0.9563675523

> <CNNaffinity>
7.5835518837

> <CNN_VS>
7.2526631355

> <CNNaffinity_variance>
0.1312709600

$$$$
