LIT25-RL-C7_protomer_1


 25 28  0  0  0  0  0  0  0  0999 V2000
   -1.7099   97.0660   52.3357 N   0  0  0  0  0  0  0  0  0  0  0  0
   -0.5615   96.3047   52.3931 C   0  0  0  0  0  0  0  0  0  0  0  0
    0.4702   96.8087   53.0460 N   0  0  0  0  0  0  0  0  0  0  0  0
    1.5668   96.0446   53.0831 C   0  0  0  0  0  0  0  0  0  0  0  0
    1.6597   94.8349   52.5251 N   0  0  0  0  0  0  0  0  0  0  0  0
    0.5471   94.4317   51.9135 C   0  0  0  0  0  0  0  0  0  0  0  0
   -0.5898   95.1159   51.8231 N   0  0  0  0  0  0  0  0  0  0  0  0
   -1.7345   97.7297   53.0974 H   0  0  0  0  0  0  0  0  0  0  0  0
   -2.5209   96.4794   52.1975 H   0  0  0  0  0  0  0  0  0  0  0  0
    2.7595   96.5684   53.7986 C   0  0  0  0  0  0  0  0  0  0  0  0
    3.9595   95.8585   53.8583 C   0  0  0  0  0  0  0  0  0  0  0  0
    5.0445   96.3982   54.5445 C   0  0  0  0  0  0  0  0  0  0  0  0
    4.9203   97.6385   55.1626 C   0  0  0  0  0  0  0  0  0  0  0  0
    3.7027   98.3026   55.0722 C   0  0  0  0  0  0  0  0  0  0  0  0
    2.6390   97.7826   54.4061 N   0  0  0  0  0  0  0  0  0  0  0  0
    3.5214   99.5740   55.6850 N   0  0  0  0  0  0  0  0  0  0  0  0
    3.0859   99.7879   56.9763 C   0  0  0  0  0  0  0  0  0  0  0  0
    3.0586  101.1502   57.1471 C   0  0  0  0  0  0  0  0  0  0  0  0
    3.4626  101.7891   56.0073 N   0  0  0  0  0  0  0  0  0  0  0  0
    3.7312  100.8253   55.1522 C   0  0  0  0  0  0  0  0  0  0  0  0
    0.5975   93.1111   51.3013 C   0  0  0  0  0  0  0  0  0  0  0  0
    1.6156   92.3508   50.7537 C   0  0  0  0  0  0  0  0  0  0  0  0
    1.0320   91.1369   50.3163 C   0  0  0  0  0  0  0  0  0  0  0  0
   -0.3048   91.2257   50.6223 C   0  0  0  0  0  0  0  0  0  0  0  0
   -0.5790   92.4137   51.2188 O   0  0  0  0  0  0  0  0  0  0  0  0
  1  2  1  0
  2  3  2  0
  3  4  1  0
  4 10  1  0
 10 11  2  0
 11 12  1  0
 12 13  2  0
 13 14  1  0
 14 16  1  0
 16 17  1  0
 17 18  2  0
 18 19  1  0
 19 20  2  0
 14 15  2  0
  4  5  2  0
  5  6  1  0
  6 21  1  0
 21 22  2  0
 22 23  1  0
 23 24  2  0
 24 25  1  0
  6  7  2  0
  7  2  1  0
 15 10  1  0
 25 21  1  0
 20 16  1  0
  1  8  1  0
  1  9  1  0
M  END
> <CANDIDATE_ID>
LIT25-RL-C7

> <PRIMARY_PROTOMER>
true

> <PH>
7.4

> <minimizedAffinity>
-9.48641

> <CNNscore>
0.9553397894

> <CNNaffinity>
7.5788383484

> <CNN_VS>
7.2403659821

> <CNNaffinity_variance>
0.1230994537

$$$$
