@<TRIPOS>MOLECULE
C5A
   28    30     1     0     0
SMALL
bcc


@<TRIPOS>ATOM
1 N -2.1940 3.3630 0.8670 N.pl3 1 C5A -0.910500
2 C -1.7930 2.1020 0.4680 C.ar 1 C5A 0.861900
3 N1 -0.4910 1.8470 0.4880 N.ar 1 C5A -0.799000
4 C1 -0.1000 0.6010 0.1370 C.ar 1 C5A 0.631800
5 C2 1.3500 0.3780 0.2120 C.ar 1 C5A -0.392500
6 C3 1.9050 -0.5050 1.1450 C.ar 1 C5A -0.013500
7 C4 3.2870 -0.7450 1.1720 C.ar 1 C5A -0.327000
8 C5 4.1920 -0.1250 0.2950 C.ar 1 C5A 0.569700
9 O 5.4440 -0.3610 0.3190 O.co2 1 C5A -0.739700
10 C6 3.6060 0.7780 -0.6090 C.ar 1 C5A -0.327000
11 C7 2.2260 1.0340 -0.6550 C.ar 1 C5A -0.013500
12 C8 -1.0090 -0.3920 -0.2570 C.ar 1 C5A -0.294600
13 C9 -0.6740 -1.7040 -0.6820 C.ar 1 C5A -0.085000
14 C10 -1.6730 -2.5960 -1.0420 C.ar 1 C5A 0.042900
15 F -1.3540 -3.8330 -1.4400 F 1 C5A -0.160900
16 C11 -3.0040 -2.2170 -0.9930 C.ar 1 C5A -0.135000
17 C12 -3.3290 -0.9220 -0.5820 C.ar 1 C5A -0.200300
18 C13 -2.3540 0.0000 -0.2170 C.ar 1 C5A 0.453600
19 N2 -2.7450 1.2220 0.1550 N.ar 1 C5A -0.814000
20 H -3.1120 3.3050 1.2810 H 1 C5A 0.394300
21 H1 -1.4540 3.7630 1.4290 H 1 C5A 0.394300
22 H2 1.2760 -1.0240 1.8620 H 1 C5A 0.102000
23 H3 3.6830 -1.4460 1.9070 H 1 C5A 0.112000
24 H4 4.2570 1.3020 -1.3080 H 1 C5A 0.112000
25 H5 1.8500 1.7460 -1.3830 H 1 C5A 0.102000
26 H6 0.3630 -2.0290 -0.7430 H 1 C5A 0.170000
27 H7 -3.7780 -2.9210 -1.2760 H 1 C5A 0.128000
28 H8 -4.3740 -0.6210 -0.5510 H 1 C5A 0.137000
@<TRIPOS>BOND
     1     1     2 1   
     2     2     3 ar  
     3     3     4 ar  
     4     4     5 1   
     5     5     6 ar  
     6     6     7 ar  
     7     7     8 ar  
     8     8     9 1   
     9     8    10 ar  
    10    10    11 ar  
    11     4    12 ar  
    12    12    13 ar  
    13    13    14 ar  
    14    14    15 1   
    15    14    16 ar  
    16    16    17 ar  
    17    17    18 ar  
    18    18    19 ar  
    19    19     2 ar  
    20    11     5 ar  
    21    18    12 ar  
    22     1    20 1   
    23     1    21 1   
    24     6    22 1   
    25     7    23 1   
    26    10    24 1   
    27    11    25 1   
    28    13    26 1   
    29    16    27 1   
    30    17    28 1   
@<TRIPOS>SUBSTRUCTURE
     1 C5A         1 TEMP              0 ****  ****    0 ROOT
