LIT25-RL-C5_protomer_1


 21 23  0  0  0  0  0  0  0  0999 V2000
   -1.4811   96.6058   52.4234 N   0  0  0  0  0  0  0  0  0  0  0  0
   -0.2483   95.9907   52.5248 C   0  0  0  0  0  0  0  0  0  0  0  0
   -0.1191   94.7980   51.9570 N   0  0  0  0  0  0  0  0  0  0  0  0
    1.0985   94.2127   52.0203 C   0  0  0  0  0  0  0  0  0  0  0  0
    2.1892   94.8079   52.6717 C   0  0  0  0  0  0  0  0  0  0  0  0
    3.4802   94.2373   52.8208 C   0  0  0  0  0  0  0  0  0  0  0  0
    4.4770   94.9354   53.4855 C   0  0  0  0  0  0  0  0  0  0  0  0
    5.6943   94.3956   53.6225 F   0  0  0  0  0  0  0  0  0  0  0  0
    4.2238   96.1902   54.0122 C   0  0  0  0  0  0  0  0  0  0  0  0
    2.9494   96.7445   53.8717 C   0  0  0  0  0  0  0  0  0  0  0  0
    1.9243   96.0724   53.2136 C   0  0  0  0  0  0  0  0  0  0  0  0
    0.7299   96.6657   53.1290 N   0  0  0  0  0  0  0  0  0  0  0  0
   -1.3539   97.6067   52.4162 H   0  0  0  0  0  0  0  0  0  0  0  0
   -1.9732   96.1933   51.6410 H   0  0  0  0  0  0  0  0  0  0  0  0
    1.1801   92.9112   51.3439 C   0  0  0  0  0  0  0  0  0  0  0  0
    2.4081   92.3694   50.9506 C   0  0  0  0  0  0  0  0  0  0  0  0
    2.4745   91.1031   50.3493 C   0  0  0  0  0  0  0  0  0  0  0  0
    1.3414   90.3119   50.0967 C   0  0  0  0  0  0  0  0  0  0  0  0
    1.4145   89.1572   49.5629 O   0  0  0  0  0  0  0  0  0  0  0  0
    0.1217   90.8989   50.4765 C   0  0  0  0  0  0  0  0  0  0  0  0
    0.0306   92.1637   51.0794 C   0  0  0  0  0  0  0  0  0  0  0  0
  1  2  1  0
  2  3  2  0
  3  4  1  0
  4 15  1  0
 15 16  2  0
 16 17  1  0
 17 18  2  0
 18 19  1  0
 18 20  1  0
 20 21  2  0
  4  5  2  0
  5  6  1  0
  6  7  2  0
  7  8  1  0
  7  9  1  0
  9 10  2  0
 10 11  1  0
 11 12  2  0
 12  2  1  0
 21 15  1  0
 11  5  1  0
  1 13  1  0
  1 14  1  0
M  CHG 1  19  -1
M  END
> <CANDIDATE_ID>
LIT25-RL-C5

> <PRIMARY_PROTOMER>
true

> <PH>
7.4

> <minimizedAffinity>
-10.06150

> <CNNscore>
0.9153532982

> <CNNaffinity>
7.0200877190

> <CNN_VS>
6.4258604050

> <CNNaffinity_variance>
0.3548008502

$$$$
