LIT25-RL-C5_protomer_1


 21 23  0  0  0  0  0  0  0  0999 V2000
   -1.4947   96.6031   52.4521 N   0  0  0  0  0  0  0  0  0  0  0  0
   -0.2651   95.9798   52.5406 C   0  0  0  0  0  0  0  0  0  0  0  0
   -0.1489   94.7877   51.9689 N   0  0  0  0  0  0  0  0  0  0  0  0
    1.0654   94.1944   52.0196 C   0  0  0  0  0  0  0  0  0  0  0  0
    2.1660   94.7809   52.6621 C   0  0  0  0  0  0  0  0  0  0  0  0
    3.4545   94.2016   52.7979 C   0  0  0  0  0  0  0  0  0  0  0  0
    4.4620   94.8917   53.4549 C   0  0  0  0  0  0  0  0  0  0  0  0
    5.6770   94.3437   53.5793 F   0  0  0  0  0  0  0  0  0  0  0  0
    4.2219   96.1469   53.9868 C   0  0  0  0  0  0  0  0  0  0  0  0
    2.9499   96.7097   53.8595 C   0  0  0  0  0  0  0  0  0  0  0  0
    1.9143   96.0459   53.2094 C   0  0  0  0  0  0  0  0  0  0  0  0
    0.7231   96.6471   53.1372 N   0  0  0  0  0  0  0  0  0  0  0  0
   -1.3611   97.6032   52.4459 H   0  0  0  0  0  0  0  0  0  0  0  0
   -1.9967   96.1957   51.6733 H   0  0  0  0  0  0  0  0  0  0  0  0
    1.1323   92.8939   51.3394 C   0  0  0  0  0  0  0  0  0  0  0  0
    2.3540   92.3399   50.9436 C   0  0  0  0  0  0  0  0  0  0  0  0
    2.4060   91.0747   50.3387 C   0  0  0  0  0  0  0  0  0  0  0  0
    1.2642   90.2965   50.0849 C   0  0  0  0  0  0  0  0  0  0  0  0
    1.3243   89.1426   49.5478 O   0  0  0  0  0  0  0  0  0  0  0  0
    0.0512   90.8957   50.4674 C   0  0  0  0  0  0  0  0  0  0  0  0
   -0.0255   92.1597   51.0740 C   0  0  0  0  0  0  0  0  0  0  0  0
  1  2  1  0
  2  3  2  0
  3  4  1  0
  4 15  1  0
 15 16  2  0
 16 17  1  0
 17 18  2  0
 18 19  1  0
 18 20  1  0
 20 21  2  0
  4  5  2  0
  5  6  1  0
  6  7  2  0
  7  8  1  0
  7  9  1  0
  9 10  2  0
 10 11  1  0
 11 12  2  0
 12  2  1  0
 21 15  1  0
 11  5  1  0
  1 13  1  0
  1 14  1  0
M  CHG 1  19  -1
M  END
> <CANDIDATE_ID>
LIT25-RL-C5

> <PRIMARY_PROTOMER>
true

> <PH>
7.4

> <minimizedAffinity>
-10.03342

> <CNNscore>
0.9170654416

> <CNNaffinity>
7.0240077972

> <CNN_VS>
6.4414749146

> <CNNaffinity_variance>
0.3510259688

$$$$
