@<TRIPOS>MOLECULE
C7A
 34 37 0 0 0
SMALL
GASTEIGER

@<TRIPOS>ATOM
      1 N           1.7480    0.7227   -3.3965 N.pl3   1  UNL1       -0.3274
      2 C           1.7376    0.4161   -2.0520 C.ar    1  UNL1        0.2166
      3 N           0.5606    0.2639   -1.4722 N.ar    1  UNL1       -0.1933
      4 C           0.5866   -0.0336   -0.1689 C.ar    1  UNL1        0.1838
      5 C          -0.7113   -0.2077    0.5341 C.ar    1  UNL1        0.1103
      6 C          -0.7839   -0.4691    1.9030 C.ar    1  UNL1       -0.0325
      7 C          -2.0284   -0.6245    2.5084 C.ar    1  UNL1       -0.0562
      8 C          -3.1849   -0.5173    1.7423 C.ar    1  UNL1       -0.0187
      9 C          -3.0552   -0.2562    0.3834 C.ar    1  UNL1        0.1394
     10 N          -4.2050   -0.1360   -0.4462 N.ar    1  UNL1       -0.2903
     11 C          -4.1939    0.1262   -1.8005 C.ar    1  UNL1        0.0307
     12 C          -5.5097    0.1548   -2.1926 C.ar    1  UNL1        0.0458
     13 N          -6.3368   -0.0813   -1.1293 N.ar    1  UNL1       -0.2437
     14 C          -5.5323   -0.2500   -0.1014 C.ar    1  UNL1        0.1015
     15 N          -1.8452   -0.1048   -0.2153 N.ar    1  UNL1       -0.2261
     16 N           1.7045   -0.1930    0.5440 N.ar    1  UNL1       -0.2032
     17 C           2.8247   -0.0323   -0.1588 C.ar    1  UNL1        0.2007
     18 C           4.0702   -0.2102    0.5750 C.ar    1  UNL1        0.1717
     19 C           4.3677   -0.4985    1.8951 C.ar    1  UNL1       -0.0128
     20 C           5.7794   -0.5445    1.9974 C.ar    1  UNL1       -0.0232
     21 C           6.2607   -0.2832    0.7370 C.ar    1  UNL1        0.0927
     22 O           5.2371   -0.0807   -0.1312 O.2     1  UNL1       -0.4598
     23 N           2.9025    0.2626   -1.4533 N.ar    1  UNL1       -0.1917
     24 H           0.8850    0.4310   -3.8340 H       1  UNL1        0.1452
     25 H           2.6146    0.4269   -3.8237 H       1  UNL1        0.1452
     26 H           0.1189   -0.5517    2.5019 H       1  UNL1        0.0640
     27 H          -2.0938   -0.8275    3.5745 H       1  UNL1        0.0619
     28 H          -4.1438   -0.6399    2.2316 H       1  UNL1        0.0654
     29 H          -3.2700    0.2664   -2.3448 H       1  UNL1        0.0829
     30 H          -5.9026    0.3335   -3.1853 H       1  UNL1        0.0845
     31 H          -5.8712   -0.4561    0.9036 H       1  UNL1        0.1032
     32 H           3.6445   -0.6544    2.6834 H       1  UNL1        0.0656
     33 H           6.3729   -0.7427    2.8788 H       1  UNL1        0.0649
     34 H           7.2526   -0.2089    0.3129 H       1  UNL1        0.1029
@<TRIPOS>BOND
     1     1     2    1
     2     2     3   ar
     3     3     4   ar
     4     4     5    1
     5     5     6   ar
     6     6     7   ar
     7     7     8   ar
     8     8     9   ar
     9     9    10    1
    10    10    11   ar
    11    11    12   ar
    12    12    13   ar
    13    13    14   ar
    14     9    15   ar
    15     4    16   ar
    16    16    17   ar
    17    17    18    1
    18    18    19   ar
    19    19    20   ar
    20    20    21   ar
    21    21    22   ar
    22    17    23   ar
    23    23     2   ar
    24    15     5   ar
    25    22    18   ar
    26    14    10   ar
    27     1    24    1
    28     1    25    1
    29     6    26    1
    30     7    27    1
    31     8    28    1
    32    11    29    1
    33    12    30    1
    34    14    31    1
    35    19    32    1
    36    20    33    1
    37    21    34    1
