@<TRIPOS>MOLECULE
C7A
   34    37     1     0     0
SMALL
bcc


@<TRIPOS>ATOM
1 N 1.7480 0.7230 -3.3970 N.pl3 1 C7A -0.941500
2 C 1.7380 0.4160 -2.0520 C.ar 1 C7A 0.905900
3 N1 0.5610 0.2640 -1.4720 N.ar 1 C7A -0.760000
4 C1 0.5870 -0.0340 -0.1690 C.ar 1 C7A 0.652000
5 C2 -0.7110 -0.2080 0.5340 C.ar 1 C7A 0.397300
6 C3 -0.7840 -0.4690 1.9030 C.ar 1 C7A -0.226300
7 C4 -2.0280 -0.6250 2.5080 C.ar 1 C7A -0.074000
8 C5 -3.1850 -0.5170 1.7420 C.ar 1 C7A -0.255300
9 C6 -3.0550 -0.2560 0.3830 C.ar 1 C7A 0.518800
10 N2 -4.2050 -0.1360 -0.4460 N.ar 1 C7A -0.256700
11 C7 -4.1940 0.1260 -1.8000 C.ar 1 C7A -0.206600
12 C8 -5.5100 0.1550 -2.1930 C.ar 1 C7A 0.281200
13 N3 -6.3370 -0.0810 -1.1290 N.ar 1 C7A -0.654000
14 C9 -5.5320 -0.2500 -0.1010 C.ar 1 C7A 0.399400
15 N4 -1.8450 -0.1050 -0.2150 N.ar 1 C7A -0.660000
16 N5 1.7040 -0.1930 0.5440 N.ar 1 C7A -0.757000
17 C10 2.8250 -0.0320 -0.1590 C.ar 1 C7A 0.686000
18 C11 4.0700 -0.2100 0.5750 C.ar 1 C7A 0.160700
19 C12 4.3680 -0.4980 1.8950 C.ar 1 C7A -0.177300
20 C13 5.7790 -0.5440 1.9970 C.ar 1 C7A -0.283300
21 C14 6.2610 -0.2830 0.7370 C.ar 1 C7A 0.264600
22 O 5.2370 -0.0810 -0.1310 O.2 1 C7A -0.325800
23 N6 2.9020 0.2630 -1.4530 N.ar 1 C7A -0.764000
24 H 0.8850 0.4310 -3.8340 H 1 C7A 0.450800
25 H1 2.6150 0.4270 -3.8240 H 1 C7A 0.450800
26 H2 0.1190 -0.5520 2.5020 H 1 C7A 0.162000
27 H3 -2.0940 -0.8280 3.5750 H 1 C7A 0.148000
28 H4 -4.1440 -0.6400 2.2320 H 1 C7A 0.152000
29 H5 -3.2700 0.2660 -2.3450 H 1 C7A 0.199000
30 H6 -5.9030 0.3340 -3.1850 H 1 C7A 0.046100
31 H7 -5.8710 -0.4560 0.9040 H 1 C7A 0.063100
32 H8 3.6440 -0.6540 2.6830 H 1 C7A 0.179000
33 H9 6.3730 -0.7430 2.8790 H 1 C7A 0.167000
34 H10 7.2530 -0.2090 0.3130 H 1 C7A 0.058100
@<TRIPOS>BOND
     1     1     2 1   
     2     2     3 ar  
     3     3     4 ar  
     4     4     5 1   
     5     5     6 ar  
     6     6     7 ar  
     7     7     8 ar  
     8     8     9 ar  
     9     9    10 1   
    10    10    11 1   
    11    11    12 2   
    12    12    13 1   
    13    13    14 2   
    14     9    15 ar  
    15     4    16 ar  
    16    16    17 ar  
    17    17    18 1   
    18    18    19 2   
    19    19    20 1   
    20    20    21 2   
    21    21    22 1   
    22    17    23 ar  
    23    23     2 ar  
    24    15     5 ar  
    25    22    18 1   
    26    14    10 1   
    27     1    24 1   
    28     1    25 1   
    29     6    26 1   
    30     7    27 1   
    31     8    28 1   
    32    11    29 1   
    33    12    30 1   
    34    14    31 1   
    35    19    32 1   
    36    20    33 1   
    37    21    34 1   
@<TRIPOS>SUBSTRUCTURE
     1 C7A         1 TEMP              0 ****  ****    0 ROOT
