NEC
  CCTOOLS-0919241039

 38 40  0  0  1  0  0  0  0  0999 V2000
    0.6960    0.4960    3.2950 C   0  0  0  0  0
    1.8650    0.7410    3.0830 O   0  0  0  0  0
    0.3020    0.0960    4.5200 N   0  0  0  0  0
    1.2860   -0.0430    5.5960 C   0  0  0  0  0
    0.5830   -0.5070    6.8730 C   0  0  0  0  0
   -0.3160    0.6410    2.1880 C   0  0  0  0  0
    0.3330    0.9970    0.9490 O   0  0  0  0  0
   -0.9790   -0.7240    1.8730 C   0  0  0  0  0
   -2.0990   -0.9620    2.7280 O   0  0  0  0  0
   -1.4350   -0.5300    0.4050 C   0  0  0  0  0
   -2.8180   -0.1720    0.3540 O   0  0  0  0  0
   -0.5590    0.6260   -0.1140 C   0  0  0  0  0
    0.2100    0.1870   -1.2800 N   0  0  0  0  0
    1.4450   -0.3880   -1.2610 C   0  0  0  0  0
    1.8320   -0.6520   -2.4760 N   0  0  0  0  0
    0.8710   -0.2640   -3.3490 C   0  0  0  0  0
    0.7350   -0.2970   -4.7470 C   0  0  0  0  0
    1.7380   -0.8210   -5.5440 N   0  0  0  0  0
   -0.3790    0.1840   -5.2860 N   0  0  0  0  0
   -1.3410    0.6850   -4.5340 C   0  0  0  0  0
   -1.2570    0.7370   -3.2210 N   0  0  0  0  0
   -0.1820    0.2730   -2.5920 C   0  0  0  0  0
   -0.6320   -0.0990    4.6890 H   0  0  0  0  0
    1.7680    0.9170    5.7760 H   0  0  0  0  0
    2.0380   -0.7780    5.3080 H   0  0  0  0  0
    1.3150   -0.6120    7.6740 H   0  0  0  0  0
   -0.1680    0.2270    7.1620 H   0  0  0  0  0
    0.1010   -1.4690    6.6940 H   0  0  0  0  0
   -1.0700    1.3820    2.4530 H   0  0  0  0  0
   -0.2530   -1.5330    1.9520 H   0  0  0  0  0
   -1.7490   -1.0740    3.6230 H   0  0  0  0  0
   -1.2540   -1.4350   -0.1740 H   0  0  0  0  0
   -3.3150   -0.9310    0.6900 H   0  0  0  0  0
   -1.1880    1.4750   -0.3830 H   0  0  0  0  0
    2.0190   -0.5940   -0.3700 H   0  0  0  0  0
    1.6330   -0.8380   -6.5080 H   0  0  0  0  0
    2.5470   -1.1700   -5.1380 H   0  0  0  0  0
   -2.2300    1.0670   -5.0130 H   0  0  0  0  0
  1  2  2  0  0  0
  1  3  1  0  0  0
  1  6  1  0  0  0
  3  4  1  0  0  0
  3 23  1  0  0  0
  4  5  1  0  0  0
  4 24  1  0  0  0
  4 25  1  0  0  0
  5 26  1  0  0  0
  5 27  1  0  0  0
  5 28  1  0  0  0
  6  7  1  0  0  0
  6  8  1  0  0  0
  6 29  1  0  0  0
  7 12  1  0  0  0
  8  9  1  0  0  0
  8 10  1  0  0  0
  8 30  1  0  0  0
  9 31  1  0  0  0
 10 11  1  0  0  0
 10 12  1  0  0  0
 10 32  1  0  0  0
 11 33  1  0  0  0
 12 13  1  0  0  0
 12 34  1  0  0  0
 13 14  1  0  0  0
 13 22  1  0  0  0
 14 15  2  0  0  0
 14 35  1  0  0  0
 15 16  1  0  0  0
 16 17  1  0  0  0
 16 22  2  0  0  0
 17 18  1  0  0  0
 17 19  2  0  0  0
 18 36  1  0  0  0
 18 37  1  0  0  0
 19 20  1  0  0  0
 20 21  2  0  0  0
 20 38  1  0  0  0
 21 22  1  0  0  0
M  END
$$$$
