@<TRIPOS>MOLECULE
NEC
   38    40     1     0     0
SMALL
bcc


@<TRIPOS>ATOM
1 C -36.283000 7.582000 34.396000 c 1 NEC 0.639100
2 O -36.944000 6.716000 34.945000 o 1 NEC -0.635100
3 N -36.516000 8.883000 34.573000 ns 1 NEC -0.545900
4 C1 -37.561000 9.365000 35.458000 c3 1 NEC 0.086000
5 C2 -37.516000 10.863000 35.642000 c3 1 NEC -0.116100
6 C3 -35.128000 7.232000 33.501000 c5 1 NEC 0.026100
7 O1 -33.987000 7.062000 34.343000 os 1 NEC -0.409600
8 C4 -35.302000 5.946000 32.690000 c5 1 NEC 0.093100
9 O2 -35.554000 6.217000 31.308000 oh 1 NEC -0.597800
10 C5 -34.008000 5.175000 32.904000 c5 1 NEC 0.124100
11 O3 -33.096000 5.304000 31.806000 oh 1 NEC -0.583800
12 C6 -33.384000 5.778000 34.163000 c5 1 NEC 0.246800
13 N1 -33.609000 4.889000 35.342000 na 1 NEC -0.289000
14 C7 -34.473000 5.067000 36.368000 cc 1 NEC 0.402700
15 N2 -34.395000 4.038000 37.248000 nd 1 NEC -0.534100
16 C8 -33.472000 3.183000 36.787000 ca 1 NEC -0.239200
17 C9 -32.893000 1.897000 37.223000 ca 1 NEC 0.764200
18 N3 -33.317000 1.319000 38.370000 nv 1 NEC -0.958500
19 N4 -31.936000 1.327000 36.449000 nb 1 NEC -0.794000
20 C10 -31.508000 1.899000 35.305000 ca 1 NEC 0.690900
21 N5 -31.994000 3.073000 34.852000 nb 1 NEC -0.733000
22 C11 -32.952000 3.747000 35.537000 ca 1 NEC 0.475800
23 H -36.425616 8.789518 33.612774 hn 1 NEC 0.330500
24 H1 -37.066333 10.123850 36.062794 h1 1 NEC 0.061200
25 H2 -38.259094 8.804008 36.079793 h1 1 NEC 0.061200
26 H3 -38.262037 11.541963 36.055385 hc 1 NEC 0.043700
27 H4 -36.819552 11.424350 35.020611 hc 1 NEC 0.043700
28 H5 -38.012747 10.103807 35.036461 hc 1 NEC 0.043700
29 H6 -34.412842 7.777613 32.885632 h1 1 NEC 0.107700
30 H7 -36.234846 5.635625 33.160388 h1 1 NEC 0.076700
31 H8 -36.218386 6.919713 31.337227 ho 1 NEC 0.436000
32 H9 -34.491329 4.209054 33.046720 h1 1 NEC 0.072700
33 H10 -33.688198 5.075844 31.075772 ho 1 NEC 0.438000
34 H11 -32.357752 5.970132 33.848829 h2 1 NEC 0.148700
35 H12 -35.288356 5.740609 36.585346 h5 1 NEC 0.071800
36 H13 -32.805658 0.517168 38.560273 hn 1 NEC 0.449300
37 H14 -34.082436 1.548086 38.920223 hn 1 NEC 0.449300
38 H15 -30.651442 1.619849 34.709963 h5 1 NEC 0.054100
@<TRIPOS>BOND
     1     1     2 2   
     2     1     3 1   
     3     1     6 1   
     4     3     4 1   
     5     3    23 1   
     6     4     5 1   
     7     4    24 1   
     8     4    25 1   
     9     5    26 1   
    10     5    27 1   
    11     5    28 1   
    12     6     7 1   
    13     6     8 1   
    14     6    29 1   
    15     7    12 1   
    16     8     9 1   
    17     8    10 1   
    18     8    30 1   
    19     9    31 1   
    20    10    11 1   
    21    10    12 1   
    22    10    32 1   
    23    11    33 1   
    24    12    13 1   
    25    12    34 1   
    26    13    14 1   
    27    13    22 1   
    28    14    15 2   
    29    14    35 1   
    30    15    16 1   
    31    16    17 ar  
    32    16    22 ar  
    33    17    18 1   
    34    17    19 ar  
    35    18    36 1   
    36    18    37 1   
    37    19    20 ar  
    38    20    21 ar  
    39    20    38 1   
    40    21    22 ar  
@<TRIPOS>SUBSTRUCTURE
     1 NEC         1 TEMP              0 ****  ****    0 ROOT
