LIT25-RL-C7_protomer_1


 25 28  0  0  0  0  0  0  0  0999 V2000
   -1.6258   97.9414   52.1654 N   0  0  0  0  0  0  0  0  0  0  0  0
   -0.7379   96.8896   52.2493 C   0  0  0  0  0  0  0  0  0  0  0  0
    0.4435   97.1327   52.7878 N   0  0  0  0  0  0  0  0  0  0  0  0
    1.2794   96.0913   52.8545 C   0  0  0  0  0  0  0  0  0  0  0  0
    0.9820   94.8598   52.4321 N   0  0  0  0  0  0  0  0  0  0  0  0
   -0.2450   94.7401   51.9273 C   0  0  0  0  0  0  0  0  0  0  0  0
   -1.1463   95.7120   51.8188 N   0  0  0  0  0  0  0  0  0  0  0  0
   -1.4004   98.6518   52.8479 H   0  0  0  0  0  0  0  0  0  0  0  0
   -2.5777   97.6039   52.1356 H   0  0  0  0  0  0  0  0  0  0  0  0
    2.6255   96.3124   53.4447 C   0  0  0  0  0  0  0  0  0  0  0  0
    2.9622   97.4977   54.0999 C   0  0  0  0  0  0  0  0  0  0  0  0
    4.2399   97.6499   54.6326 C   0  0  0  0  0  0  0  0  0  0  0  0
    5.1659   96.6192   54.5059 C   0  0  0  0  0  0  0  0  0  0  0  0
    4.7781   95.4605   53.8438 C   0  0  0  0  0  0  0  0  0  0  0  0
    3.5344   95.3044   53.3199 N   0  0  0  0  0  0  0  0  0  0  0  0
    5.6851   94.3754   53.6866 N   0  0  0  0  0  0  0  0  0  0  0  0
    6.8397   94.3971   52.9319 C   0  0  0  0  0  0  0  0  0  0  0  0
    7.4022   93.1511   53.0626 C   0  0  0  0  0  0  0  0  0  0  0  0
    6.6377   92.3574   53.8725 N   0  0  0  0  0  0  0  0  0  0  0  0
    5.6203   93.1124   54.2291 C   0  0  0  0  0  0  0  0  0  0  0  0
   -0.6188   93.4102   51.4657 C   0  0  0  0  0  0  0  0  0  0  0  0
    0.1038   92.3039   51.0554 C   0  0  0  0  0  0  0  0  0  0  0  0
   -0.8370   91.2986   50.7242 C   0  0  0  0  0  0  0  0  0  0  0  0
   -2.0761   91.8475   50.9518 C   0  0  0  0  0  0  0  0  0  0  0  0
   -1.9568   93.1228   51.4012 O   0  0  0  0  0  0  0  0  0  0  0  0
  1  2  1  0
  2  3  2  0
  3  4  1  0
  4 10  1  0
 10 11  2  0
 11 12  1  0
 12 13  2  0
 13 14  1  0
 14 16  1  0
 16 17  1  0
 17 18  2  0
 18 19  1  0
 19 20  2  0
 14 15  2  0
  4  5  2  0
  5  6  1  0
  6 21  1  0
 21 22  2  0
 22 23  1  0
 23 24  2  0
 24 25  1  0
  6  7  2  0
  7  2  1  0
 15 10  1  0
 25 21  1  0
 20 16  1  0
  1  8  1  0
  1  9  1  0
M  END
> <CANDIDATE_ID>
LIT25-RL-C7

> <PRIMARY_PROTOMER>
true

> <PH>
7.4

> <minimizedAffinity>
-9.98482

> <CNNscore>
0.9685485363

> <CNNaffinity>
7.4091067314

> <CNN_VS>
7.1760792732

> <CNNaffinity_variance>
0.0058528814

$$$$
