LIT25-MET-PGD2_protomer_1


 27 27  0  0  0  0  0  0  0  0999 V2000
    2.8652   99.8932   55.5926 C   0  0  0  0  0  0  0  0  0  0  0  0
    2.9362  101.0029   54.5437 C   0  0  0  0  0  0  0  0  0  0  0  0
    3.9561  101.3152   53.9378 O   0  0  0  0  0  0  0  0  0  0  0  0
    1.6042  101.6656   54.3120 C   0  0  0  0  0  0  0  0  0  0  0  0
    0.6683  100.6843   55.0023 C   0  0  0  0  0  0  0  0  0  0  0  0
   -0.5847  101.2592   55.3050 O   0  0  0  0  0  0  0  0  0  0  0  0
    1.4642  100.1440   56.2074 C   0  0  0  0  0  0  0  0  0  0  0  0
   -0.4632  101.9886   55.9387 H   0  0  0  0  0  0  0  0  0  0  0  0
    4.2408   97.8248   54.9256 C   0  0  0  0  0  0  0  0  0  0  0  0
    3.1308   98.5838   54.8841 C   0  0  0  0  0  0  0  0  0  0  0  0
    4.4661   96.5199   54.1990 C   0  0  0  0  0  0  0  0  0  0  0  0
    5.1070   95.5713   55.0414 O   0  0  0  0  0  0  0  0  0  0  0  0
    5.9243   95.9886   55.3633 H   0  0  0  0  0  0  0  0  0  0  0  0
    3.1390   95.9395   53.6971 C   0  0  0  0  0  0  0  0  0  0  0  0
    3.2818   94.6653   52.8536 C   0  0  0  0  0  0  0  0  0  0  0  0
    1.9829   94.1105   52.2612 C   0  0  0  0  0  0  0  0  0  0  0  0
    1.1963   92.5439   50.4520 C   0  0  0  0  0  0  0  0  0  0  0  0
    2.1452   92.7292   51.6264 C   0  0  0  0  0  0  0  0  0  0  0  0
    1.5938  101.1039   57.4161 C   0  0  0  0  0  0  0  0  0  0  0  0
    2.9603  101.7058   57.5771 C   0  0  0  0  0  0  0  0  0  0  0  0
    3.2786  103.0107   57.5876 C   0  0  0  0  0  0  0  0  0  0  0  0
    2.3495  104.1902   57.4878 C   0  0  0  0  0  0  0  0  0  0  0  0
    2.9475  105.3752   56.7271 C   0  0  0  0  0  0  0  0  0  0  0  0
    3.4072  106.5107   57.6389 C   0  0  0  0  0  0  0  0  0  0  0  0
    4.7049  106.2349   58.4041 C   0  0  0  0  0  0  0  0  0  0  0  0
    5.7446  106.0639   57.7110 O   0  0  0  0  0  0  0  0  0  0  0  0
    4.5658  106.2141   59.6612 O   0  0  0  0  0  0  0  0  0  0  0  0
 17 18  1  0
 18 16  1  0
 16 15  1  0
 15 14  1  0
 14 11  1  0
 11 12  1  0
 11  9  1  0
  9 10  2  0
 10  1  1  0
  1  2  1  0
  2  3  2  0
  2  4  1  0
  4  5  1  0
  5  6  1  0
  5  7  1  0
  7 19  1  0
 19 20  1  0
 20 21  2  0
 21 22  1  0
 22 23  1  0
 23 24  1  0
 24 25  1  0
 25 26  2  0
 25 27  1  0
  7  1  1  0
 12 13  1  0
  6  8  1  0
M  CHG 1  27  -1
M  END
> <CANDIDATE_ID>
LIT25-MET-PGD2

> <PRIMARY_PROTOMER>
true

> <PH>
7.4

> <minimizedAffinity>
-7.06066

> <CNNscore>
0.5826900601

> <CNNaffinity>
5.5095458031

> <CNN_VS>
3.2103576660

> <CNNaffinity_variance>
0.7813423276

$$$$
