@<TRIPOS>MOLECULE
ZMA
   40    43     1     0     0
SMALL
bcc


@<TRIPOS>ATOM
1 C 1.642000 103.010000 55.799000 ca 1 ZMA -0.089500
2 C1 1.365000 104.364000 55.672000 ca 1 ZMA -0.183500
3 C2 0.143000 104.747000 55.148000 ca 1 ZMA 0.125100
4 O -0.174000 106.129000 54.998000 oh 1 ZMA -0.496100
5 C3 -0.791000 103.777000 54.764000 ca 1 ZMA -0.183500
6 C4 -0.515000 102.424000 54.858000 ca 1 ZMA -0.089500
7 C5 0.682000 102.042000 55.411000 ca 1 ZMA -0.118300
8 C6 0.990000 100.580000 55.510000 c3 1 ZMA -0.065100
9 C7 1.910000 100.380000 54.316000 c3 1 ZMA 0.202800
10 N 2.313000 99.016000 54.202000 nu 1 ZMA -0.816900
11 C8 1.457000 98.116000 53.518000 cc 1 ZMA 0.930900
12 N1 1.868000 96.886000 53.350000 nd 1 ZMA -0.768000
13 N2 0.283000 98.617000 53.117000 nc 1 ZMA -0.845000
14 C9 -0.520000 97.759000 52.498000 cd 1 ZMA 0.862400
15 N3 -1.731000 98.289000 52.064000 nv 1 ZMA -0.960500
16 N4 -0.118000 96.501000 52.298000 na 1 ZMA -0.209600
17 N5 -0.781000 95.471000 51.741000 nd 1 ZMA -0.565100
18 C10 1.048000 96.069000 52.720000 cd 1 ZMA 0.477500
19 N6 1.205000 94.812000 52.413000 nc 1 ZMA -0.376300
20 C11 0.048000 94.473000 51.809000 cc 1 ZMA 0.503300
21 C12 -0.269000 93.232000 51.325000 cc 1 ZMA 0.224400
22 C13 0.458000 92.096000 51.145000 cd 1 ZMA -0.191300
23 C14 -0.462000 91.182000 50.677000 cd 1 ZMA -0.276300
24 C15 -1.690000 91.776000 50.602000 cc 1 ZMA 0.254600
25 O1 -1.573000 93.024000 51.024000 os 1 ZMA -0.341800
26 H 2.459000 102.736000 56.149000 ha 1 ZMA 0.135500
27 H1 1.987000 105.002000 55.939000 ha 1 ZMA 0.143000
28 H2 -0.295000 106.304000 54.175000 ho 1 ZMA 0.419000
29 H3 -1.602000 104.049000 54.400000 ha 1 ZMA 0.143000
30 H4 -1.146000 101.790000 54.603000 ha 1 ZMA 0.135500
31 H5 0.184000 100.049000 55.419000 hc 1 ZMA 0.056700
32 H6 1.450000 100.378000 56.339000 hc 1 ZMA 0.056700
33 H7 2.697000 100.936000 54.423000 h1 1 ZMA 0.070200
34 H8 1.443000 100.642000 53.507000 h1 1 ZMA 0.070200
35 H9 3.056000 98.747000 54.539000 hn 1 ZMA 0.436800
36 H10 -1.802000 99.133000 51.915000 hn 1 ZMA 0.462300
37 H11 -2.408000 97.772000 51.944000 hn 1 ZMA 0.462300
38 H12 1.368000 91.970000 51.289000 ha 1 ZMA 0.180000
39 H13 -0.274000 90.304000 50.436000 ha 1 ZMA 0.165000
40 H14 -2.477000 91.368000 50.318000 h4 1 ZMA 0.055100
@<TRIPOS>BOND
     1     1     7 ar  
     2     1     2 ar  
     3     1    26 1   
     4     2     3 ar  
     5     2    27 1   
     6     3     5 ar  
     7     3     4 1   
     8     4    28 1   
     9     5     6 ar  
    10     5    29 1   
    11     6     7 ar  
    12     6    30 1   
    13     7     8 1   
    14     8     9 1   
    15     8    31 1   
    16     8    32 1   
    17     9    10 1   
    18     9    33 1   
    19     9    34 1   
    20    10    11 1   
    21    10    35 1   
    22    11    12 2   
    23    11    13 1   
    24    12    18 1   
    25    13    14 2   
    26    14    16 1   
    27    14    15 1   
    28    15    36 1   
    29    15    37 1   
    30    16    17 1   
    31    16    18 1   
    32    17    20 2   
    33    18    19 2   
    34    19    20 1   
    35    20    21 1   
    36    21    22 2   
    37    21    25 1   
    38    22    23 1   
    39    22    38 1   
    40    23    24 2   
    41    23    39 1   
    42    24    25 1   
    43    24    40 1   
@<TRIPOS>SUBSTRUCTURE
     1 ZMA         1 TEMP              0 ****  ****    0 ROOT
