LIT25-RL-C7_protomer_1


 25 28  0  0  0  0  0  0  0  0999 V2000
   -1.7147   97.0876   52.3405 N   0  0  0  0  0  0  0  0  0  0  0  0
   -0.5663   96.3262   52.3980 C   0  0  0  0  0  0  0  0  0  0  0  0
    0.4656   96.8305   53.0503 N   0  0  0  0  0  0  0  0  0  0  0  0
    1.5621   96.0663   53.0874 C   0  0  0  0  0  0  0  0  0  0  0  0
    1.6548   94.8563   52.5301 N   0  0  0  0  0  0  0  0  0  0  0  0
    0.5420   94.4528   51.9191 C   0  0  0  0  0  0  0  0  0  0  0  0
   -0.5949   95.1370   51.8287 N   0  0  0  0  0  0  0  0  0  0  0  0
   -1.7390   97.7517   53.1019 H   0  0  0  0  0  0  0  0  0  0  0  0
   -2.5258   96.5009   52.2029 H   0  0  0  0  0  0  0  0  0  0  0  0
    2.7552   96.5905   53.8023 C   0  0  0  0  0  0  0  0  0  0  0  0
    3.9581   95.8849   53.8536 C   0  0  0  0  0  0  0  0  0  0  0  0
    5.0432   96.4247   54.5396 C   0  0  0  0  0  0  0  0  0  0  0  0
    4.9162   97.6607   55.1657 C   0  0  0  0  0  0  0  0  0  0  0  0
    3.6957   98.3205   55.0835 C   0  0  0  0  0  0  0  0  0  0  0  0
    2.6318   97.8004   54.4177 N   0  0  0  0  0  0  0  0  0  0  0  0
    3.5114   99.5873   55.7047 N   0  0  0  0  0  0  0  0  0  0  0  0
    3.0752   99.7916   56.9974 C   0  0  0  0  0  0  0  0  0  0  0  0
    3.0447  101.1527   57.1773 C   0  0  0  0  0  0  0  0  0  0  0  0
    3.4474  101.8000   56.0419 N   0  0  0  0  0  0  0  0  0  0  0  0
    3.7183  100.8426   55.1804 C   0  0  0  0  0  0  0  0  0  0  0  0
    0.5920   93.1318   51.3077 C   0  0  0  0  0  0  0  0  0  0  0  0
    1.6092   92.3726   50.7570 C   0  0  0  0  0  0  0  0  0  0  0  0
    1.0258   91.1576   50.3226 C   0  0  0  0  0  0  0  0  0  0  0  0
   -0.3100   91.2447   50.6331 C   0  0  0  0  0  0  0  0  0  0  0  0
   -0.5837   92.4328   51.2298 O   0  0  0  0  0  0  0  0  0  0  0  0
  1  2  1  0
  2  3  2  0
  3  4  1  0
  4 10  1  0
 10 11  2  0
 11 12  1  0
 12 13  2  0
 13 14  1  0
 14 16  1  0
 16 17  1  0
 17 18  2  0
 18 19  1  0
 19 20  2  0
 14 15  2  0
  4  5  2  0
  5  6  1  0
  6 21  1  0
 21 22  2  0
 22 23  1  0
 23 24  2  0
 24 25  1  0
  6  7  2  0
  7  2  1  0
 15 10  1  0
 25 21  1  0
 20 16  1  0
  1  8  1  0
  1  9  1  0
M  END
> <CANDIDATE_ID>
LIT25-RL-C7

> <PRIMARY_PROTOMER>
true

> <PH>
7.4

> <minimizedAffinity>
-9.47304

> <CNNscore>
0.9544802308

> <CNNaffinity>
7.5760054588

> <CNN_VS>
7.2311472893

> <CNNaffinity_variance>
0.1234098449

$$$$
